/*---------------------------------------------------------------------------*\
  =========                 |
  \\      /  F ield         | OpenFOAM: The Open Source CFD Toolbox
   \\    /   O peration     | Website:  https://openfoam.org
    \\  /    A nd           | Version:  8
     \\/     M anipulation  |
\*---------------------------------------------------------------------------*/
Build  : 8-1c9b5879390b
Exec   : simpleFoam
Date   : Apr 02 2022
Time   : 14:34:56
Host   : "sck-inspiron7577"
PID    : 69307
I/O    : uncollated
Case   : /home/sck/sck_openfoam/rotorDisk_Tutorial
nProcs : 1
sigFpe : Enabling floating point exception trapping (FOAM_SIGFPE).
fileModificationChecking : Monitoring run-time modified files using timeStampMaster (fileModificationSkew 10)
allowSystemOperations : Allowing user-supplied system call operations

// * * * * * * * * * * * * * * * * * * * * * * * * * * * * * * * * * * * * * //
Create time

Create mesh for time = 0


SIMPLE: Convergence criteria found
        U: tolerance 0.0001
        p: tolerance 0.001
        "(k|epsilon|omega)": tolerance 0.001

Reading field p

Reading field U

Reading/calculating face flux field phi

Selecting incompressible transport model Newtonian
Selecting turbulence model type RAS
Selecting RAS turbulence model kOmegaSST
Selecting patchDistMethod meshWave
RAS
{
    model           kOmegaSST;
    turbulence      on;
    printCoeffs     on;
    alphaK1         0.85;
    alphaK2         1;
    alphaOmega1     0.5;
    alphaOmega2     0.856;
    gamma1          0.55555556;
    gamma2          0.44;
    beta1           0.075;
    beta2           0.0828;
    betaStar        0.09;
    a1              0.31;
    b1              1;
    c1              10;
    F3              false;
}

No MRF models present

Creating finite volume options from "system/fvOptions"

Selecting finite volume options model type rotorDisk
    Source: disk
    - selecting cells using cellZone rotatingZone
    - selected 1148 cell(s) with volume 0.0019628985
    Selecting trimModel fixedTrim
    Constructing blade profiles:
    - creating lookup profile profile1
    Rotor geometry:
    - disk diameter = 0.49990929
    - disk area     = 0.1962783
    - origin        = (0 0 0)
    - r-axis        = (0 0 1)
    - psi-axis      = (1 0 0)
    - z-axis        = (0 1 0)

Starting time loop

Time = 1

rotorDisk output:
    min/max(AOA)   = -3.7918025, 39.818408
    Effective power = -863.19691
    Effective drag = -43.948536
    Effective lift = 347.64114
smoothSolver:  Solving for Ux, Initial residual = 1, Final residual = 0.076868259, No Iterations 9
smoothSolver:  Solving for Uy, Initial residual = 1, Final residual = 0.087620502, No Iterations 9
smoothSolver:  Solving for Uz, Initial residual = 1, Final residual = 0.076836289, No Iterations 9
GAMG:  Solving for p, Initial residual = 1, Final residual = 0.089402493, No Iterations 5
time step continuity errors : sum local = 0.0029041907, global = -0.00051322733, cumulative = -0.00051322733
smoothSolver:  Solving for omega, Initial residual = 1, Final residual = 0.0880238, No Iterations 5
smoothSolver:  Solving for k, Initial residual = 1, Final residual = 0.086734934, No Iterations 6
ExecutionTime = 0.93 s  ClockTime = 1 s

Time = 2

rotorDisk output:
    min/max(AOA)   = -10.157749, 2.3214561
    Effective power = -1427.8071
    Effective drag = -70.162208
    Effective lift = 754.87588
smoothSolver:  Solving for Ux, Initial residual = 0.58177782, Final residual = 0.044053195, No Iterations 6
smoothSolver:  Solving for Uy, Initial residual = 0.25265101, Final residual = 0.021972855, No Iterations 9
smoothSolver:  Solving for Uz, Initial residual = 0.57865385, Final residual = 0.043548161, No Iterations 6
GAMG:  Solving for p, Initial residual = 0.17043066, Final residual = 0.016464521, No Iterations 4
time step continuity errors : sum local = 0.016028276, global = -0.0015640175, cumulative = -0.0020772448
smoothSolver:  Solving for omega, Initial residual = 0.25181864, Final residual = 0.019407652, No Iterations 7
smoothSolver:  Solving for k, Initial residual = 0.34230121, Final residual = 0.026225539, No Iterations 8
ExecutionTime = 1.46 s  ClockTime = 1 s

Time = 3

rotorDisk output:
    min/max(AOA)   = -26.789004, 37.211117
    Effective power = -5627.4278
    Effective drag = -272.72175
    Effective lift = 1768.498
smoothSolver:  Solving for Ux, Initial residual = 0.57940002, Final residual = 0.05520184, No Iterations 5
smoothSolver:  Solving for Uy, Initial residual = 0.22459129, Final residual = 0.022322497, No Iterations 7
smoothSolver:  Solving for Uz, Initial residual = 0.58128492, Final residual = 0.055601766, No Iterations 5
GAMG:  Solving for p, Initial residual = 0.14041599, Final residual = 0.0080795673, No Iterations 5
time step continuity errors : sum local = 0.014434727, global = -0.0017832006, cumulative = -0.0038604454
smoothSolver:  Solving for omega, Initial residual = 0.14101552, Final residual = 0.013184384, No Iterations 7
smoothSolver:  Solving for k, Initial residual = 0.22433564, Final residual = 0.018425262, No Iterations 8
ExecutionTime = 2.02 s  ClockTime = 2 s

Time = 4

rotorDisk output:
    min/max(AOA)   = -22.369029, 6.9353895
    Effective power = -5336.1209
    Effective drag = -275.20045
    Effective lift = 1869.8609
smoothSolver:  Solving for Ux, Initial residual = 0.5540489, Final residual = 0.049141164, No Iterations 5
smoothSolver:  Solving for Uy, Initial residual = 0.23480751, Final residual = 0.022623169, No Iterations 6
smoothSolver:  Solving for Uz, Initial residual = 0.55835881, Final residual = 0.048603467, No Iterations 5
GAMG:  Solving for p, Initial residual = 0.17798308, Final residual = 0.014332478, No Iterations 4
time step continuity errors : sum local = 0.032237033, global = -0.0029615623, cumulative = -0.0068220078
smoothSolver:  Solving for omega, Initial residual = 0.12605705, Final residual = 0.0096127093, No Iterations 7
smoothSolver:  Solving for k, Initial residual = 0.18815721, Final residual = 0.01564375, No Iterations 7
ExecutionTime = 2.48 s  ClockTime = 2 s

Time = 5

rotorDisk output:
    min/max(AOA)   = -23.500942, 32.515822
    Effective power = -5184.4477
    Effective drag = -277.57496
    Effective lift = 1921.8499
smoothSolver:  Solving for Ux, Initial residual = 0.48222028, Final residual = 0.046085623, No Iterations 5
smoothSolver:  Solving for Uy, Initial residual = 0.22344143, Final residual = 0.019321991, No Iterations 6
smoothSolver:  Solving for Uz, Initial residual = 0.48526631, Final residual = 0.045472776, No Iterations 5
GAMG:  Solving for p, Initial residual = 0.11417836, Final residual = 0.0088537419, No Iterations 4
time step continuity errors : sum local = 0.043370971, global = -0.0034039018, cumulative = -0.01022591
smoothSolver:  Solving for omega, Initial residual = 0.11302823, Final residual = 0.0083300873, No Iterations 5
smoothSolver:  Solving for k, Initial residual = 0.14621349, Final residual = 0.011107558, No Iterations 7
ExecutionTime = 2.94 s  ClockTime = 3 s

Time = 6

rotorDisk output:
    min/max(AOA)   = -24.40327, 12.643919
    Effective power = -4946.9627
    Effective drag = -270.22785
    Effective lift = 1904.2228
smoothSolver:  Solving for Ux, Initial residual = 0.42574913, Final residual = 0.040392239, No Iterations 5
smoothSolver:  Solving for Uy, Initial residual = 0.20522576, Final residual = 0.018088384, No Iterations 6
smoothSolver:  Solving for Uz, Initial residual = 0.42858642, Final residual = 0.040408824, No Iterations 5
GAMG:  Solving for p, Initial residual = 0.10043559, Final residual = 0.0078311989, No Iterations 4
time step continuity errors : sum local = 0.048776343, global = -0.0012082605, cumulative = -0.01143417
smoothSolver:  Solving for omega, Initial residual = 0.10241679, Final residual = 0.0098297706, No Iterations 4
smoothSolver:  Solving for k, Initial residual = 0.13785289, Final residual = 0.010892612, No Iterations 7
ExecutionTime = 3.43 s  ClockTime = 3 s

Time = 7

rotorDisk output:
    min/max(AOA)   = -26.070278, -5.4495214
    Effective power = -4672.0311
    Effective drag = -260.51956
    Effective lift = 1863.8633
smoothSolver:  Solving for Ux, Initial residual = 0.39081678, Final residual = 0.034247343, No Iterations 5
smoothSolver:  Solving for Uy, Initial residual = 0.1895728, Final residual = 0.01714335, No Iterations 6
smoothSolver:  Solving for Uz, Initial residual = 0.39219519, Final residual = 0.0342058, No Iterations 5
GAMG:  Solving for p, Initial residual = 0.094059419, Final residual = 0.0068161217, No Iterations 4
time step continuity errors : sum local = 0.044048562, global = 0.0030347156, cumulative = -0.0083994544
smoothSolver:  Solving for omega, Initial residual = 0.094406848, Final residual = 0.0089857816, No Iterations 4
smoothSolver:  Solving for k, Initial residual = 0.12883333, Final residual = 0.011362297, No Iterations 7
ExecutionTime = 3.87 s  ClockTime = 4 s

Time = 8

rotorDisk output:
    min/max(AOA)   = -42.225176, -5.2633428
    Effective power = -4400.3377
    Effective drag = -250.35773
    Effective lift = 1813.0098
smoothSolver:  Solving for Ux, Initial residual = 0.35751086, Final residual = 0.028983334, No Iterations 5
smoothSolver:  Solving for Uy, Initial residual = 0.17720079, Final residual = 0.015449574, No Iterations 6
smoothSolver:  Solving for Uz, Initial residual = 0.35812751, Final residual = 0.028857366, No Iterations 5
GAMG:  Solving for p, Initial residual = 0.087277483, Final residual = 0.0059969258, No Iterations 4
time step continuity errors : sum local = 0.037782098, global = 0.0053885866, cumulative = -0.0030108678
smoothSolver:  Solving for omega, Initial residual = 0.084429702, Final residual = 0.0069668456, No Iterations 5
smoothSolver:  Solving for k, Initial residual = 0.1128539, Final residual = 0.008723695, No Iterations 8
ExecutionTime = 4.36 s  ClockTime = 4 s

Time = 9

rotorDisk output:
    min/max(AOA)   = -62.664778, -5.3231899
    Effective power = -4177.1854
    Effective drag = -240.2265
    Effective lift = 1760.6615
smoothSolver:  Solving for Ux, Initial residual = 0.32516103, Final residual = 0.026226874, No Iterations 5
smoothSolver:  Solving for Uy, Initial residual = 0.16430276, Final residual = 0.014116565, No Iterations 6
smoothSolver:  Solving for Uz, Initial residual = 0.32688057, Final residual = 0.02624193, No Iterations 5
GAMG:  Solving for p, Initial residual = 0.079691458, Final residual = 0.0051159503, No Iterations 4
time step continuity errors : sum local = 0.031836934, global = 0.0050418407, cumulative = 0.0020309728
smoothSolver:  Solving for omega, Initial residual = 0.070677686, Final residual = 0.0054625901, No Iterations 5
smoothSolver:  Solving for k, Initial residual = 0.090289418, Final residual = 0.0079019359, No Iterations 8
ExecutionTime = 4.84 s  ClockTime = 5 s

Time = 10

rotorDisk output:
    min/max(AOA)   = -70.860913, -5.6050623
    Effective power = -4008.9624
    Effective drag = -232.11693
    Effective lift = 1718.6137
smoothSolver:  Solving for Ux, Initial residual = 0.29691399, Final residual = 0.024651605, No Iterations 5
smoothSolver:  Solving for Uy, Initial residual = 0.14675533, Final residual = 0.012832305, No Iterations 6
smoothSolver:  Solving for Uz, Initial residual = 0.29909147, Final residual = 0.02485576, No Iterations 5
GAMG:  Solving for p, Initial residual = 0.070609033, Final residual = 0.0043873294, No Iterations 4
time step continuity errors : sum local = 0.027762148, global = 0.0040264186, cumulative = 0.0060573914
smoothSolver:  Solving for omega, Initial residual = 0.061476016, Final residual = 0.005684425, No Iterations 4
smoothSolver:  Solving for k, Initial residual = 0.074818485, Final residual = 0.0069243518, No Iterations 8
ExecutionTime = 5.29 s  ClockTime = 5 s

Time = 11

rotorDisk output:
    min/max(AOA)   = -74.552725, -5.9895482
    Effective power = -3890.0068
    Effective drag = -225.95661
    Effective lift = 1687.4618
smoothSolver:  Solving for Ux, Initial residual = 0.27053605, Final residual = 0.023453316, No Iterations 5
smoothSolver:  Solving for Uy, Initial residual = 0.12667629, Final residual = 0.011479468, No Iterations 6
smoothSolver:  Solving for Uz, Initial residual = 0.27249577, Final residual = 0.02374563, No Iterations 5
GAMG:  Solving for p, Initial residual = 0.062603817, Final residual = 0.0039604672, No Iterations 4
time step continuity errors : sum local = 0.025276302, global = 0.0029680241, cumulative = 0.0090254156
smoothSolver:  Solving for omega, Initial residual = 0.053943996, Final residual = 0.0037506938, No Iterations 5
smoothSolver:  Solving for k, Initial residual = 0.062692861, Final residual = 0.0059148808, No Iterations 8
ExecutionTime = 5.76 s  ClockTime = 6 s

Time = 12

rotorDisk output:
    min/max(AOA)   = -76.341613, -6.4004397
    Effective power = -3812.6644
    Effective drag = -221.5629
    Effective lift = 1665.745
smoothSolver:  Solving for Ux, Initial residual = 0.24641818, Final residual = 0.02193323, No Iterations 5
smoothSolver:  Solving for Uy, Initial residual = 0.10722254, Final residual = 0.010246627, No Iterations 6
smoothSolver:  Solving for Uz, Initial residual = 0.24813445, Final residual = 0.022323785, No Iterations 5
GAMG:  Solving for p, Initial residual = 0.055958353, Final residual = 0.003889321, No Iterations 4
time step continuity errors : sum local = 0.024362004, global = 0.0016215009, cumulative = 0.010646916
smoothSolver:  Solving for omega, Initial residual = 0.04800925, Final residual = 0.0036476047, No Iterations 5
smoothSolver:  Solving for k, Initial residual = 0.052268869, Final residual = 0.0051009375, No Iterations 8
ExecutionTime = 6.23 s  ClockTime = 6 s

Time = 13

rotorDisk output:
    min/max(AOA)   = -77.036185, -6.7651704
    Effective power = -3768.3088
    Effective drag = -218.69218
    Effective lift = 1652.1162
smoothSolver:  Solving for Ux, Initial residual = 0.21855413, Final residual = 0.019376057, No Iterations 5
smoothSolver:  Solving for Uy, Initial residual = 0.088823973, Final residual = 0.006443755, No Iterations 7
smoothSolver:  Solving for Uz, Initial residual = 0.2207211, Final residual = 0.019894072, No Iterations 5
GAMG:  Solving for p, Initial residual = 0.050314447, Final residual = 0.0037781438, No Iterations 4
time step continuity errors : sum local = 0.022732462, global = 9.9237823e-05, cumulative = 0.010746154
smoothSolver:  Solving for omega, Initial residual = 0.043486179, Final residual = 0.0038436648, No Iterations 5
smoothSolver:  Solving for k, Initial residual = 0.043863494, Final residual = 0.0035634268, No Iterations 9
ExecutionTime = 6.69 s  ClockTime = 6 s

Time = 14

rotorDisk output:
    min/max(AOA)   = -77.01859, -7.1055667
    Effective power = -3750.9636
    Effective drag = -217.15297
    Effective lift = 1645.1253
smoothSolver:  Solving for Ux, Initial residual = 0.1872194, Final residual = 0.016105301, No Iterations 5
smoothSolver:  Solving for Uy, Initial residual = 0.073436282, Final residual = 0.0053457356, No Iterations 7
smoothSolver:  Solving for Uz, Initial residual = 0.18930635, Final residual = 0.01667989, No Iterations 5
GAMG:  Solving for p, Initial residual = 0.045169825, Final residual = 0.0033667211, No Iterations 4
time step continuity errors : sum local = 0.019173721, global = -0.0014566018, cumulative = 0.0092895525
smoothSolver:  Solving for omega, Initial residual = 0.041341384, Final residual = 0.0030867092, No Iterations 6
smoothSolver:  Solving for k, Initial residual = 0.037810488, Final residual = 0.0033003617, No Iterations 9
ExecutionTime = 7.14 s  ClockTime = 7 s

Time = 15

rotorDisk output:
    min/max(AOA)   = -76.528097, -7.3852207
    Effective power = -3746.4222
    Effective drag = -216.33188
    Effective lift = 1641.3115
smoothSolver:  Solving for Ux, Initial residual = 0.15615503, Final residual = 0.012567921, No Iterations 5
smoothSolver:  Solving for Uy, Initial residual = 0.060133446, Final residual = 0.005837837, No Iterations 6
smoothSolver:  Solving for Uz, Initial residual = 0.15814829, Final residual = 0.0131409, No Iterations 5
GAMG:  Solving for p, Initial residual = 0.039800347, Final residual = 0.0027976087, No Iterations 4
time step continuity errors : sum local = 0.014975537, global = -0.001958831, cumulative = 0.0073307215
smoothSolver:  Solving for omega, Initial residual = 0.036080004, Final residual = 0.0030916773, No Iterations 6
smoothSolver:  Solving for k, Initial residual = 0.033184495, Final residual = 0.0031524219, No Iterations 9
ExecutionTime = 7.6 s  ClockTime = 7 s

Time = 16

rotorDisk output:
    min/max(AOA)   = -76.045058, -7.5839094
    Effective power = -3745.2444
    Effective drag = -215.78712
    Effective lift = 1638.393
smoothSolver:  Solving for Ux, Initial residual = 0.12753741, Final residual = 0.0096309108, No Iterations 5
smoothSolver:  Solving for Uy, Initial residual = 0.048391847, Final residual = 0.0044951581, No Iterations 6
smoothSolver:  Solving for Uz, Initial residual = 0.12926885, Final residual = 0.010067841, No Iterations 5
GAMG:  Solving for p, Initial residual = 0.034850566, Final residual = 0.0021410801, No Iterations 4
time step continuity errors : sum local = 0.01066119, global = -0.0016366769, cumulative = 0.0056940445
smoothSolver:  Solving for omega, Initial residual = 0.033368461, Final residual = 0.0032166701, No Iterations 6
smoothSolver:  Solving for k, Initial residual = 0.028937912, Final residual = 0.0024526582, No Iterations 10
ExecutionTime = 8.07 s  ClockTime = 8 s

Time = 17

rotorDisk output:
    min/max(AOA)   = -75.524517, -7.7411289
    Effective power = -3741.3231
    Effective drag = -215.18879
    Effective lift = 1635.3
smoothSolver:  Solving for Ux, Initial residual = 0.10283017, Final residual = 0.0078232933, No Iterations 5
smoothSolver:  Solving for Uy, Initial residual = 0.038955133, Final residual = 0.0035129682, No Iterations 6
smoothSolver:  Solving for Uz, Initial residual = 0.10413712, Final residual = 0.008028413, No Iterations 5
GAMG:  Solving for p, Initial residual = 0.031050308, Final residual = 0.0028628277, No Iterations 3
time step continuity errors : sum local = 0.013173196, global = -0.0016167021, cumulative = 0.0040773424
smoothSolver:  Solving for omega, Initial residual = 0.030637444, Final residual = 0.0025398936, No Iterations 7
smoothSolver:  Solving for k, Initial residual = 0.025635293, Final residual = 0.0023951228, No Iterations 10
ExecutionTime = 8.53 s  ClockTime = 8 s

Time = 18

rotorDisk output:
    min/max(AOA)   = -75.096006, -7.8684627
    Effective power = -3730.8455
    Effective drag = -214.35133
    Effective lift = 1631.3502
smoothSolver:  Solving for Ux, Initial residual = 0.080680299, Final residual = 0.0068267442, No Iterations 5
smoothSolver:  Solving for Uy, Initial residual = 0.030237885, Final residual = 0.0028088656, No Iterations 6
smoothSolver:  Solving for Uz, Initial residual = 0.081406828, Final residual = 0.0069435392, No Iterations 5
GAMG:  Solving for p, Initial residual = 0.027580523, Final residual = 0.0020503671, No Iterations 3
time step continuity errors : sum local = 0.0089044308, global = -0.0010912617, cumulative = 0.0029860808
smoothSolver:  Solving for omega, Initial residual = 0.027477985, Final residual = 0.0025476033, No Iterations 7
smoothSolver:  Solving for k, Initial residual = 0.023543897, Final residual = 0.0023413594, No Iterations 10
ExecutionTime = 8.98 s  ClockTime = 9 s

Time = 19

rotorDisk output:
    min/max(AOA)   = -74.802434, -7.9718484
    Effective power = -3713.2109
    Effective drag = -213.22649
    Effective lift = 1626.2507
smoothSolver:  Solving for Ux, Initial residual = 0.06467026, Final residual = 0.0061651237, No Iterations 5
smoothSolver:  Solving for Uy, Initial residual = 0.025323403, Final residual = 0.0020393708, No Iterations 7
smoothSolver:  Solving for Uz, Initial residual = 0.065370636, Final residual = 0.0062996584, No Iterations 5
GAMG:  Solving for p, Initial residual = 0.024280553, Final residual = 0.0016094408, No Iterations 3
time step continuity errors : sum local = 0.006577077, global = -0.00067285719, cumulative = 0.0023132236
smoothSolver:  Solving for omega, Initial residual = 0.025149205, Final residual = 0.0019912748, No Iterations 8
smoothSolver:  Solving for k, Initial residual = 0.022419902, Final residual = 0.0018383207, No Iterations 11
ExecutionTime = 9.47 s  ClockTime = 9 s

Time = 20

rotorDisk output:
    min/max(AOA)   = -74.580158, -8.0617259
    Effective power = -3689.6811
    Effective drag = -211.83523
    Effective lift = 1620.0049
smoothSolver:  Solving for Ux, Initial residual = 0.051793418, Final residual = 0.0043582365, No Iterations 6
smoothSolver:  Solving for Uy, Initial residual = 0.022075948, Final residual = 0.0020761991, No Iterations 7
smoothSolver:  Solving for Uz, Initial residual = 0.052384191, Final residual = 0.004455006, No Iterations 6
GAMG:  Solving for p, Initial residual = 0.021046746, Final residual = 0.0017641495, No Iterations 3
time step continuity errors : sum local = 0.0068556436, global = -0.00030073727, cumulative = 0.0020124863
smoothSolver:  Solving for omega, Initial residual = 0.023048446, Final residual = 0.0019832454, No Iterations 8
smoothSolver:  Solving for k, Initial residual = 0.021642028, Final residual = 0.0017572501, No Iterations 11
ExecutionTime = 9.93 s  ClockTime = 10 s

Time = 21

rotorDisk output:
    min/max(AOA)   = -74.422187, -8.1359678
    Effective power = -3661.1878
    Effective drag = -210.23055
    Effective lift = 1612.855
smoothSolver:  Solving for Ux, Initial residual = 0.043995944, Final residual = 0.0043048979, No Iterations 6
smoothSolver:  Solving for Uy, Initial residual = 0.020714949, Final residual = 0.0016940444, No Iterations 8
smoothSolver:  Solving for Uz, Initial residual = 0.044125719, Final residual = 0.004391394, No Iterations 6
GAMG:  Solving for p, Initial residual = 0.019289959, Final residual = 0.001199193, No Iterations 4
time step continuity errors : sum local = 0.0044795463, global = -0.0001581133, cumulative = 0.001854373
smoothSolver:  Solving for omega, Initial residual = 0.021325418, Final residual = 0.0019644087, No Iterations 8
smoothSolver:  Solving for k, Initial residual = 0.02101734, Final residual = 0.002068688, No Iterations 10
ExecutionTime = 10.4 s  ClockTime = 10 s

Time = 22

rotorDisk output:
    min/max(AOA)   = -74.306922, -8.2000491
    Effective power = -3629.308
    Effective drag = -208.46299
    Effective lift = 1604.9817
smoothSolver:  Solving for Ux, Initial residual = 0.044054111, Final residual = 0.0035642575, No Iterations 7
smoothSolver:  Solving for Uy, Initial residual = 0.021791027, Final residual = 0.0017983104, No Iterations 8
smoothSolver:  Solving for Uz, Initial residual = 0.044161695, Final residual = 0.0036395976, No Iterations 7
GAMG:  Solving for p, Initial residual = 0.019134474, Final residual = 0.0014494481, No Iterations 4
time step continuity errors : sum local = 0.005220652, global = 9.5296659e-06, cumulative = 0.0018639027
smoothSolver:  Solving for omega, Initial residual = 0.019658792, Final residual = 0.0019424952, No Iterations 8
smoothSolver:  Solving for k, Initial residual = 0.020425666, Final residual = 0.0019609204, No Iterations 10
ExecutionTime = 10.89 s  ClockTime = 11 s

Time = 23

rotorDisk output:
    min/max(AOA)   = -74.219687, -8.2527091
    Effective power = -3596.425
    Effective drag = -206.65058
    Effective lift = 1597.015
smoothSolver:  Solving for Ux, Initial residual = 0.045865476, Final residual = 0.003662212, No Iterations 7
smoothSolver:  Solving for Uy, Initial residual = 0.021698478, Final residual = 0.0017822494, No Iterations 8
smoothSolver:  Solving for Uz, Initial residual = 0.045891534, Final residual = 0.0037235315, No Iterations 7
GAMG:  Solving for p, Initial residual = 0.02004418, Final residual = 0.0016044253, No Iterations 4
time step continuity errors : sum local = 0.005608354, global = -5.0675662e-05, cumulative = 0.001813227
smoothSolver:  Solving for omega, Initial residual = 0.018198978, Final residual = 0.0014974954, No Iterations 9
smoothSolver:  Solving for k, Initial residual = 0.019761185, Final residual = 0.0018510058, No Iterations 10
ExecutionTime = 11.39 s  ClockTime = 11 s

Time = 24

rotorDisk output:
    min/max(AOA)   = -74.145165, -8.2969459
    Effective power = -3564.2637
    Effective drag = -204.88998
    Effective lift = 1589.2746
smoothSolver:  Solving for Ux, Initial residual = 0.04850266, Final residual = 0.0038547102, No Iterations 7
smoothSolver:  Solving for Uy, Initial residual = 0.021515876, Final residual = 0.0017421, No Iterations 8
smoothSolver:  Solving for Uz, Initial residual = 0.048558996, Final residual = 0.0038887121, No Iterations 7
GAMG:  Solving for p, Initial residual = 0.021406371, Final residual = 0.0016842047, No Iterations 4
time step continuity errors : sum local = 0.0057134825, global = -0.00023037096, cumulative = 0.0015828561
smoothSolver:  Solving for omega, Initial residual = 0.016868783, Final residual = 0.0014518278, No Iterations 9
smoothSolver:  Solving for k, Initial residual = 0.019039349, Final residual = 0.001736228, No Iterations 10
ExecutionTime = 11.87 s  ClockTime = 12 s

Time = 25

rotorDisk output:
    min/max(AOA)   = -74.0781, -8.3347329
    Effective power = -3533.3705
    Effective drag = -203.20699
    Effective lift = 1581.9159
smoothSolver:  Solving for Ux, Initial residual = 0.050863531, Final residual = 0.0040828766, No Iterations 7
smoothSolver:  Solving for Uy, Initial residual = 0.021254782, Final residual = 0.0017069576, No Iterations 8
smoothSolver:  Solving for Uz, Initial residual = 0.05102771, Final residual = 0.004108432, No Iterations 7
GAMG:  Solving for p, Initial residual = 0.023009157, Final residual = 0.0017277872, No Iterations 4
time step continuity errors : sum local = 0.0056773479, global = -0.00038934389, cumulative = 0.0011935122
smoothSolver:  Solving for omega, Initial residual = 0.015788021, Final residual = 0.0013977803, No Iterations 9
smoothSolver:  Solving for k, Initial residual = 0.018140289, Final residual = 0.001615755, No Iterations 10
ExecutionTime = 12.36 s  ClockTime = 12 s

Time = 26

rotorDisk output:
    min/max(AOA)   = -74.013483, -8.3671564
    Effective power = -3503.8367
    Effective drag = -201.59338
    Effective lift = 1574.8804
smoothSolver:  Solving for Ux, Initial residual = 0.052612166, Final residual = 0.0042405748, No Iterations 7
smoothSolver:  Solving for Uy, Initial residual = 0.020880835, Final residual = 0.0016635321, No Iterations 8
smoothSolver:  Solving for Uz, Initial residual = 0.052887607, Final residual = 0.0042673026, No Iterations 7
GAMG:  Solving for p, Initial residual = 0.024598927, Final residual = 0.001753104, No Iterations 4
time step continuity errors : sum local = 0.0055651715, global = -0.00048557312, cumulative = 0.00070793905
smoothSolver:  Solving for omega, Initial residual = 0.014964413, Final residual = 0.0013440989, No Iterations 9
smoothSolver:  Solving for k, Initial residual = 0.017165028, Final residual = 0.0014913931, No Iterations 10
ExecutionTime = 12.85 s  ClockTime = 13 s

Time = 27

rotorDisk output:
    min/max(AOA)   = -73.947801, -8.3950492
    Effective power = -3476.0347
    Effective drag = -200.07222
    Effective lift = 1568.2623
smoothSolver:  Solving for Ux, Initial residual = 0.053624889, Final residual = 0.0043204205, No Iterations 7
smoothSolver:  Solving for Uy, Initial residual = 0.020399899, Final residual = 0.0016025155, No Iterations 8
smoothSolver:  Solving for Uz, Initial residual = 0.053958382, Final residual = 0.0043492959, No Iterations 7
GAMG:  Solving for p, Initial residual = 0.026006248, Final residual = 0.0017736762, No Iterations 4
time step continuity errors : sum local = 0.005430973, global = -0.0005155214, cumulative = 0.00019241765
smoothSolver:  Solving for omega, Initial residual = 0.014406395, Final residual = 0.0012932335, No Iterations 9
smoothSolver:  Solving for k, Initial residual = 0.016157632, Final residual = 0.0013669917, No Iterations 10
ExecutionTime = 13.33 s  ClockTime = 13 s

Time = 28

rotorDisk output:
    min/max(AOA)   = -73.879281, -8.419026
    Effective power = -3449.8618
    Effective drag = -198.63594
    Effective lift = 1562.0283
smoothSolver:  Solving for Ux, Initial residual = 0.053964174, Final residual = 0.0043354638, No Iterations 7
smoothSolver:  Solving for Uy, Initial residual = 0.019779595, Final residual = 0.0019479492, No Iterations 7
smoothSolver:  Solving for Uz, Initial residual = 0.054302459, Final residual = 0.0043661148, No Iterations 7
GAMG:  Solving for p, Initial residual = 0.027336166, Final residual = 0.0018024622, No Iterations 4
time step continuity errors : sum local = 0.0053210877, global = -0.0004948897, cumulative = -0.00030247205
smoothSolver:  Solving for omega, Initial residual = 0.014097526, Final residual = 0.0012555683, No Iterations 9
smoothSolver:  Solving for k, Initial residual = 0.015060886, Final residual = 0.0012459619, No Iterations 10
ExecutionTime = 13.82 s  ClockTime = 14 s

Time = 29

rotorDisk output:
    min/max(AOA)   = -73.808693, -8.4390073
    Effective power = -3426.1556
    Effective drag = -197.33446
    Effective lift = 1556.4309
smoothSolver:  Solving for Ux, Initial residual = 0.053339571, Final residual = 0.0042662747, No Iterations 7
smoothSolver:  Solving for Uy, Initial residual = 0.018855233, Final residual = 0.0018215255, No Iterations 7
smoothSolver:  Solving for Uz, Initial residual = 0.053658973, Final residual = 0.0042964976, No Iterations 7
GAMG:  Solving for p, Initial residual = 0.027943161, Final residual = 0.0018024553, No Iterations 4
time step continuity errors : sum local = 0.0051372811, global = -0.00045377051, cumulative = -0.00075624256
smoothSolver:  Solving for omega, Initial residual = 0.01391565, Final residual = 0.0012291318, No Iterations 9
smoothSolver:  Solving for k, Initial residual = 0.014009255, Final residual = 0.0011290268, No Iterations 10
ExecutionTime = 14.28 s  ClockTime = 14 s

Time = 30

rotorDisk output:
    min/max(AOA)   = -73.735893, -8.4564294
    Effective power = -3404.0258
    Effective drag = -196.1148
    Effective lift = 1551.1543
smoothSolver:  Solving for Ux, Initial residual = 0.052356273, Final residual = 0.0041853017, No Iterations 7
smoothSolver:  Solving for Uy, Initial residual = 0.01789829, Final residual = 0.0016944538, No Iterations 7
smoothSolver:  Solving for Uz, Initial residual = 0.052644634, Final residual = 0.0042119749, No Iterations 7
GAMG:  Solving for p, Initial residual = 0.028243428, Final residual = 0.0017988982, No Iterations 4
time step continuity errors : sum local = 0.0049582234, global = -0.00040182481, cumulative = -0.0011580674
smoothSolver:  Solving for omega, Initial residual = 0.013697245, Final residual = 0.0012079647, No Iterations 9
smoothSolver:  Solving for k, Initial residual = 0.013013799, Final residual = 0.0012770528, No Iterations 9
ExecutionTime = 14.76 s  ClockTime = 15 s

Time = 31

rotorDisk output:
    min/max(AOA)   = -73.660516, -8.4714034
    Effective power = -3383.0404
    Effective drag = -194.95045
    Effective lift = 1546.1007
smoothSolver:  Solving for Ux, Initial residual = 0.050942876, Final residual = 0.0040855852, No Iterations 7
smoothSolver:  Solving for Uy, Initial residual = 0.016871947, Final residual = 0.0015728029, No Iterations 7
smoothSolver:  Solving for Uz, Initial residual = 0.051189378, Final residual = 0.0041085159, No Iterations 7
GAMG:  Solving for p, Initial residual = 0.028259828, Final residual = 0.0017826291, No Iterations 4
time step continuity errors : sum local = 0.0047643759, global = -0.00034784685, cumulative = -0.0015059142
smoothSolver:  Solving for omega, Initial residual = 0.013574237, Final residual = 0.0011901785, No Iterations 9
smoothSolver:  Solving for k, Initial residual = 0.01210368, Final residual = 0.0011576552, No Iterations 9
ExecutionTime = 15.25 s  ClockTime = 15 s

Time = 32

rotorDisk output:
    min/max(AOA)   = -73.582872, -8.4840675
    Effective power = -3363.2393
    Effective drag = -193.84661
    Effective lift = 1541.3115
smoothSolver:  Solving for Ux, Initial residual = 0.049201579, Final residual = 0.0039745523, No Iterations 7
smoothSolver:  Solving for Uy, Initial residual = 0.015815219, Final residual = 0.0014574884, No Iterations 7
smoothSolver:  Solving for Uz, Initial residual = 0.049405254, Final residual = 0.0039931284, No Iterations 7
GAMG:  Solving for p, Initial residual = 0.027939519, Final residual = 0.0017458485, No Iterations 4
time step continuity errors : sum local = 0.0045371886, global = -0.00030119834, cumulative = -0.0018071126
smoothSolver:  Solving for omega, Initial residual = 0.013606703, Final residual = 0.001177305, No Iterations 9
smoothSolver:  Solving for k, Initial residual = 0.011232243, Final residual = 0.0010479551, No Iterations 9
ExecutionTime = 15.73 s  ClockTime = 16 s

Time = 33

rotorDisk output:
    min/max(AOA)   = -73.502485, -8.4946992
    Effective power = -3344.4545
    Effective drag = -192.7985
    Effective lift = 1536.776
smoothSolver:  Solving for Ux, Initial residual = 0.047206343, Final residual = 0.0038486743, No Iterations 7
smoothSolver:  Solving for Uy, Initial residual = 0.014750939, Final residual = 0.001351035, No Iterations 7
smoothSolver:  Solving for Uz, Initial residual = 0.047352068, Final residual = 0.0038645523, No Iterations 7
GAMG:  Solving for p, Initial residual = 0.02730504, Final residual = 0.0016857622, No Iterations 4
time step continuity errors : sum local = 0.0042763157, global = -0.00026768247, cumulative = -0.002074795
smoothSolver:  Solving for omega, Initial residual = 0.013596789, Final residual = 0.001161005, No Iterations 9
smoothSolver:  Solving for k, Initial residual = 0.010415568, Final residual = 0.00094847724, No Iterations 9
ExecutionTime = 16.19 s  ClockTime = 16 s

Time = 34

rotorDisk output:
    min/max(AOA)   = -73.419256, -8.5034242
    Effective power = -3326.5325
    Effective drag = -191.79606
    Effective lift = 1532.4532
smoothSolver:  Solving for Ux, Initial residual = 0.045141356, Final residual = 0.0037160619, No Iterations 7
smoothSolver:  Solving for Uy, Initial residual = 0.013701507, Final residual = 0.0012527509, No Iterations 7
smoothSolver:  Solving for Uz, Initial residual = 0.045239555, Final residual = 0.0037302774, No Iterations 7
GAMG:  Solving for p, Initial residual = 0.026320824, Final residual = 0.0016038296, No Iterations 4
time step continuity errors : sum local = 0.0039949002, global = -0.00024842698, cumulative = -0.002323222
smoothSolver:  Solving for omega, Initial residual = 0.013404662, Final residual = 0.0011398348, No Iterations 9
smoothSolver:  Solving for k, Initial residual = 0.0096733768, Final residual = 0.00086035079, No Iterations 9
ExecutionTime = 16.66 s  ClockTime = 17 s

Time = 35

rotorDisk output:
    min/max(AOA)   = -73.333148, -8.5103759
    Effective power = -3309.2634
    Effective drag = -190.8275
    Effective lift = 1528.2848
smoothSolver:  Solving for Ux, Initial residual = 0.043006972, Final residual = 0.0035786051, No Iterations 7
smoothSolver:  Solving for Uy, Initial residual = 0.012670142, Final residual = 0.0011599041, No Iterations 7
smoothSolver:  Solving for Uz, Initial residual = 0.043065536, Final residual = 0.0035925328, No Iterations 7
GAMG:  Solving for p, Initial residual = 0.025043922, Final residual = 0.0015021429, No Iterations 4
time step continuity errors : sum local = 0.0037006986, global = -0.00023981052, cumulative = -0.0025630325
smoothSolver:  Solving for omega, Initial residual = 0.013262413, Final residual = 0.0011252091, No Iterations 9
smoothSolver:  Solving for k, Initial residual = 0.0089383092, Final residual = 0.0007794406, No Iterations 9
ExecutionTime = 17.16 s  ClockTime = 17 s

Time = 36

rotorDisk output:
    min/max(AOA)   = -73.244064, -8.5156815
    Effective power = -3292.4907
    Effective drag = -189.88265
    Effective lift = 1524.2026
smoothSolver:  Solving for Ux, Initial residual = 0.040729236, Final residual = 0.0034363703, No Iterations 7
smoothSolver:  Solving for Uy, Initial residual = 0.011685424, Final residual = 0.0010748346, No Iterations 7
smoothSolver:  Solving for Uz, Initial residual = 0.040756709, Final residual = 0.0034505783, No Iterations 7
GAMG:  Solving for p, Initial residual = 0.02351879, Final residual = 0.0013895791, No Iterations 4
time step continuity errors : sum local = 0.0034038631, global = -0.00023391169, cumulative = -0.0027969442
smoothSolver:  Solving for omega, Initial residual = 0.013132318, Final residual = 0.0011132816, No Iterations 9
smoothSolver:  Solving for k, Initial residual = 0.0082501905, Final residual = 0.0007039057, No Iterations 9
ExecutionTime = 17.63 s  ClockTime = 18 s

Time = 37

rotorDisk output:
    min/max(AOA)   = -73.152199, -8.5194831
    Effective power = -3276.3325
    Effective drag = -188.9718
    Effective lift = 1520.2356
smoothSolver:  Solving for Ux, Initial residual = 0.038428063, Final residual = 0.0032921143, No Iterations 7
smoothSolver:  Solving for Uy, Initial residual = 0.010754947, Final residual = 0.0010002508, No Iterations 7
smoothSolver:  Solving for Uz, Initial residual = 0.038429515, Final residual = 0.0033067187, No Iterations 7
GAMG:  Solving for p, Initial residual = 0.021819843, Final residual = 0.0012750691, No Iterations 4
time step continuity errors : sum local = 0.0031138096, global = -0.00022954397, cumulative = -0.0030264882
smoothSolver:  Solving for omega, Initial residual = 0.01285667, Final residual = 0.0010930714, No Iterations 9
smoothSolver:  Solving for k, Initial residual = 0.0076166256, Final residual = 0.00063420614, No Iterations 9
ExecutionTime = 18.1 s  ClockTime = 18 s

Time = 38

rotorDisk output:
    min/max(AOA)   = -73.057895, -8.5218948
    Effective power = -3260.6722
    Effective drag = -188.0895
    Effective lift = 1516.3836
smoothSolver:  Solving for Ux, Initial residual = 0.036115492, Final residual = 0.0031522575, No Iterations 7
smoothSolver:  Solving for Uy, Initial residual = 0.0098885868, Final residual = 0.00093510324, No Iterations 7
smoothSolver:  Solving for Uz, Initial residual = 0.036097481, Final residual = 0.0031677706, No Iterations 7
GAMG:  Solving for p, Initial residual = 0.020137182, Final residual = 0.0011631589, No Iterations 4
time step continuity errors : sum local = 0.0028366936, global = -0.00022331813, cumulative = -0.0032498063
smoothSolver:  Solving for omega, Initial residual = 0.012468927, Final residual = 0.001077074, No Iterations 9
smoothSolver:  Solving for k, Initial residual = 0.0070462219, Final residual = 0.00057002495, No Iterations 9
ExecutionTime = 18.58 s  ClockTime = 19 s

Time = 39

rotorDisk output:
    min/max(AOA)   = -72.961116, -8.5230116
    Effective power = -3245.386
    Effective drag = -187.22977
    Effective lift = 1512.612
smoothSolver:  Solving for Ux, Initial residual = 0.033888297, Final residual = 0.0030169912, No Iterations 7
smoothSolver:  Solving for Uy, Initial residual = 0.0090958923, Final residual = 0.00087843911, No Iterations 7
smoothSolver:  Solving for Uz, Initial residual = 0.03385097, Final residual = 0.0030335142, No Iterations 7
GAMG:  Solving for p, Initial residual = 0.018541002, Final residual = 0.001056615, No Iterations 4
time step continuity errors : sum local = 0.0025751794, global = -0.00021355029, cumulative = -0.0034633566
smoothSolver:  Solving for omega, Initial residual = 0.012015757, Final residual = 0.0010594326, No Iterations 9
smoothSolver:  Solving for k, Initial residual = 0.0064856893, Final residual = 0.00051081306, No Iterations 9
ExecutionTime = 19.04 s  ClockTime = 19 s

Time = 40

rotorDisk output:
    min/max(AOA)   = -72.862199, -8.5229031
    Effective power = -3230.3658
    Effective drag = -186.38592
    Effective lift = 1508.8956
smoothSolver:  Solving for Ux, Initial residual = 0.031674357, Final residual = 0.0028880081, No Iterations 7
smoothSolver:  Solving for Uy, Initial residual = 0.0083670481, Final residual = 0.00082903976, No Iterations 7
smoothSolver:  Solving for Uz, Initial residual = 0.03164722, Final residual = 0.0029048412, No Iterations 7
GAMG:  Solving for p, Initial residual = 0.017018391, Final residual = 0.00095764499, No Iterations 4
time step continuity errors : sum local = 0.0023328753, global = -0.00020048638, cumulative = -0.003663843
smoothSolver:  Solving for omega, Initial residual = 0.011554495, Final residual = 0.0010487148, No Iterations 9
smoothSolver:  Solving for k, Initial residual = 0.0059572941, Final residual = 0.00058513873, No Iterations 8
ExecutionTime = 19.5 s  ClockTime = 19 s

Time = 41

rotorDisk output:
    min/max(AOA)   = -72.761415, -8.5216638
    Effective power = -3215.5063
    Effective drag = -185.54968
    Effective lift = 1505.2117
smoothSolver:  Solving for Ux, Initial residual = 0.029596792, Final residual = 0.0027624935, No Iterations 7
smoothSolver:  Solving for Uy, Initial residual = 0.0077128485, Final residual = 0.00062875982, No Iterations 8
smoothSolver:  Solving for Uz, Initial residual = 0.029564668, Final residual = 0.0027790558, No Iterations 7
GAMG:  Solving for p, Initial residual = 0.015542222, Final residual = 0.00086412289, No Iterations 4
time step continuity errors : sum local = 0.0021028728, global = -0.00018539089, cumulative = -0.0038492339
smoothSolver:  Solving for omega, Initial residual = 0.011081649, Final residual = 0.0010395248, No Iterations 9
smoothSolver:  Solving for k, Initial residual = 0.0055237967, Final residual = 0.00053321234, No Iterations 8
ExecutionTime = 20.01 s  ClockTime = 20 s

Time = 42

rotorDisk output:
    min/max(AOA)   = -72.654303, -8.5190944
    Effective power = -3200.1906
    Effective drag = -184.68579
    Effective lift = 1501.3662
smoothSolver:  Solving for Ux, Initial residual = 0.027766474, Final residual = 0.0026624283, No Iterations 7
smoothSolver:  Solving for Uy, Initial residual = 0.0071725407, Final residual = 0.00060205347, No Iterations 8
smoothSolver:  Solving for Uz, Initial residual = 0.027727625, Final residual = 0.0026785873, No Iterations 7
GAMG:  Solving for p, Initial residual = 0.014282774, Final residual = 0.00078955212, No Iterations 4
time step continuity errors : sum local = 0.0019167553, global = -0.00017014009, cumulative = -0.004019374
smoothSolver:  Solving for omega, Initial residual = 0.010556504, Final residual = 0.0010244645, No Iterations 9
smoothSolver:  Solving for k, Initial residual = 0.0051098381, Final residual = 0.00049072102, No Iterations 8
ExecutionTime = 20.56 s  ClockTime = 21 s

Time = 43

rotorDisk output:
    min/max(AOA)   = -72.544682, -8.5153915
    Effective power = -3185.0351
    Effective drag = -183.8291
    Effective lift = 1497.5148
smoothSolver:  Solving for Ux, Initial residual = 0.026035425, Final residual = 0.0025632758, No Iterations 7
smoothSolver:  Solving for Uy, Initial residual = 0.0066955013, Final residual = 0.00058025842, No Iterations 8
smoothSolver:  Solving for Uz, Initial residual = 0.025995041, Final residual = 0.0025787547, No Iterations 7
GAMG:  Solving for p, Initial residual = 0.013225018, Final residual = 0.0013085748, No Iterations 3
time step continuity errors : sum local = 0.0031681797, global = -0.0001996582, cumulative = -0.0042190322
smoothSolver:  Solving for omega, Initial residual = 0.010000888, Final residual = 0.00083455575, No Iterations 10
smoothSolver:  Solving for k, Initial residual = 0.0047469712, Final residual = 0.00045347637, No Iterations 8
ExecutionTime = 21.05 s  ClockTime = 21 s

Time = 44

rotorDisk output:
    min/max(AOA)   = -72.434415, -8.5107244
    Effective power = -3170.0907
    Effective drag = -182.98419
    Effective lift = 1493.7077
smoothSolver:  Solving for Ux, Initial residual = 0.024200486, Final residual = 0.0019848943, No Iterations 8
smoothSolver:  Solving for Uy, Initial residual = 0.0060841655, Final residual = 0.00055250218, No Iterations 8
smoothSolver:  Solving for Uz, Initial residual = 0.024048611, Final residual = 0.0019898009, No Iterations 8
GAMG:  Solving for p, Initial residual = 0.012485502, Final residual = 0.0012429275, No Iterations 3
time step continuity errors : sum local = 0.0030044688, global = -0.0002176607, cumulative = -0.0044366929
smoothSolver:  Solving for omega, Initial residual = 0.0095838326, Final residual = 0.00082393497, No Iterations 10
smoothSolver:  Solving for k, Initial residual = 0.0044509142, Final residual = 0.00042655773, No Iterations 8
ExecutionTime = 21.53 s  ClockTime = 22 s

Time = 45

rotorDisk output:
    min/max(AOA)   = -72.322316, -8.505156
    Effective power = -3155.1965
    Effective drag = -182.14145
    Effective lift = 1489.9412
smoothSolver:  Solving for Ux, Initial residual = 0.022944463, Final residual = 0.0019034282, No Iterations 8
smoothSolver:  Solving for Uy, Initial residual = 0.0058409984, Final residual = 0.00054274066, No Iterations 8
smoothSolver:  Solving for Uz, Initial residual = 0.02282435, Final residual = 0.0019118256, No Iterations 8
GAMG:  Solving for p, Initial residual = 0.011870511, Final residual = 0.0011651722, No Iterations 3
time step continuity errors : sum local = 0.0028081664, global = -0.00022153364, cumulative = -0.0046582265
smoothSolver:  Solving for omega, Initial residual = 0.0091548784, Final residual = 0.00081204772, No Iterations 10
smoothSolver:  Solving for k, Initial residual = 0.0041701007, Final residual = 0.00040401349, No Iterations 8
ExecutionTime = 21.99 s  ClockTime = 22 s

Time = 46

rotorDisk output:
    min/max(AOA)   = -72.209764, -8.4987627
    Effective power = -3140.4041
    Effective drag = -181.30307
    Effective lift = 1486.1849
smoothSolver:  Solving for Ux, Initial residual = 0.021700174, Final residual = 0.0018257196, No Iterations 8
smoothSolver:  Solving for Uy, Initial residual = 0.0056476265, Final residual = 0.00053633494, No Iterations 8
smoothSolver:  Solving for Uz, Initial residual = 0.021653505, Final residual = 0.0018374736, No Iterations 8
GAMG:  Solving for p, Initial residual = 0.011370289, Final residual = 0.0011024446, No Iterations 3
time step continuity errors : sum local = 0.0026458549, global = -0.00021533136, cumulative = -0.0048735579
smoothSolver:  Solving for omega, Initial residual = 0.0086209085, Final residual = 0.00080578906, No Iterations 10
smoothSolver:  Solving for k, Initial residual = 0.0039126406, Final residual = 0.00038414248, No Iterations 8
ExecutionTime = 22.45 s  ClockTime = 22 s

Time = 47

rotorDisk output:
    min/max(AOA)   = -72.096532, -8.4915371
    Effective power = -3125.5608
    Effective drag = -180.45706
    Effective lift = 1482.3978
smoothSolver:  Solving for Ux, Initial residual = 0.020534685, Final residual = 0.0017517935, No Iterations 8
smoothSolver:  Solving for Uy, Initial residual = 0.0054926611, Final residual = 0.00053176722, No Iterations 8
smoothSolver:  Solving for Uz, Initial residual = 0.02053132, Final residual = 0.0017652984, No Iterations 8
GAMG:  Solving for p, Initial residual = 0.010900913, Final residual = 0.0010443645, No Iterations 3
time step continuity errors : sum local = 0.0024936712, global = -0.00020659631, cumulative = -0.0050801542
smoothSolver:  Solving for omega, Initial residual = 0.0081841344, Final residual = 0.00079945843, No Iterations 10
smoothSolver:  Solving for k, Initial residual = 0.0036839923, Final residual = 0.00036622878, No Iterations 8
ExecutionTime = 22.92 s  ClockTime = 23 s

Time = 48

rotorDisk output:
    min/max(AOA)   = -71.982398, -8.4834777
    Effective power = -3110.7786
    Effective drag = -179.61437
    Effective lift = 1478.6009
smoothSolver:  Solving for Ux, Initial residual = 0.019454216, Final residual = 0.0016845946, No Iterations 8
smoothSolver:  Solving for Uy, Initial residual = 0.0053592693, Final residual = 0.00052907932, No Iterations 8
smoothSolver:  Solving for Uz, Initial residual = 0.019475531, Final residual = 0.0016989656, No Iterations 8
GAMG:  Solving for p, Initial residual = 0.010456959, Final residual = 0.00098890534, No Iterations 3
time step continuity errors : sum local = 0.0023472725, global = -0.00019762151, cumulative = -0.0052777757
smoothSolver:  Solving for omega, Initial residual = 0.0078425286, Final residual = 0.00065822217, No Iterations 11
smoothSolver:  Solving for k, Initial residual = 0.0034786695, Final residual = 0.00027057453, No Iterations 9
ExecutionTime = 23.41 s  ClockTime = 23 s

Time = 49

rotorDisk output:
    min/max(AOA)   = -71.867155, -8.4746025
    Effective power = -3096.0304
    Effective drag = -178.77472
    Effective lift = 1474.7689
smoothSolver:  Solving for Ux, Initial residual = 0.018486048, Final residual = 0.0016260374, No Iterations 8
smoothSolver:  Solving for Uy, Initial residual = 0.0052368409, Final residual = 0.0004329327, No Iterations 9
smoothSolver:  Solving for Uz, Initial residual = 0.018525942, Final residual = 0.0016405117, No Iterations 8
GAMG:  Solving for p, Initial residual = 0.010035043, Final residual = 0.0009322281, No Iterations 3
time step continuity errors : sum local = 0.0021983067, global = -0.00018910562, cumulative = -0.0054668813
smoothSolver:  Solving for omega, Initial residual = 0.007474884, Final residual = 0.00065290087, No Iterations 11
smoothSolver:  Solving for k, Initial residual = 0.0032964416, Final residual = 0.00025890783, No Iterations 9
ExecutionTime = 23.88 s  ClockTime = 24 s

Time = 50

rotorDisk output:
    min/max(AOA)   = -71.745734, -8.4644193
    Effective power = -3080.54
    Effective drag = -177.89285
    Effective lift = 1470.7171
smoothSolver:  Solving for Ux, Initial residual = 0.017614725, Final residual = 0.0015832216, No Iterations 8
smoothSolver:  Solving for Uy, Initial residual = 0.0051380177, Final residual = 0.00043447617, No Iterations 9
smoothSolver:  Solving for Uz, Initial residual = 0.01766361, Final residual = 0.0015968474, No Iterations 8
GAMG:  Solving for p, Initial residual = 0.0097461694, Final residual = 0.00088982092, No Iterations 3
time step continuity errors : sum local = 0.0020820172, global = -0.00017918428, cumulative = -0.0056460656
smoothSolver:  Solving for omega, Initial residual = 0.0071888104, Final residual = 0.00064601707, No Iterations 11
smoothSolver:  Solving for k, Initial residual = 0.0031273808, Final residual = 0.00024874181, No Iterations 9
ExecutionTime = 24.81 s  ClockTime = 25 s

Time = 51

rotorDisk output:
    min/max(AOA)   = -71.621479, -8.4534252
    Effective power = -3064.8864
    Effective drag = -177.00035
    Effective lift = 1466.6147
smoothSolver:  Solving for Ux, Initial residual = 0.016851899, Final residual = 0.0015436101, No Iterations 8
smoothSolver:  Solving for Uy, Initial residual = 0.0050275644, Final residual = 0.00043639903, No Iterations 9
smoothSolver:  Solving for Uz, Initial residual = 0.016901503, Final residual = 0.0015562794, No Iterations 8
GAMG:  Solving for p, Initial residual = 0.009484593, Final residual = 0.00085270297, No Iterations 3
time step continuity errors : sum local = 0.0019792707, global = -0.00016963758, cumulative = -0.0058157032
smoothSolver:  Solving for omega, Initial residual = 0.0068356367, Final residual = 0.00063939348, No Iterations 11
smoothSolver:  Solving for k, Initial residual = 0.0029711752, Final residual = 0.00023971504, No Iterations 9
ExecutionTime = 25.31 s  ClockTime = 25 s

Time = 52

rotorDisk output:
    min/max(AOA)   = -71.494993, -8.4417142
    Effective power = -3049.198
    Effective drag = -176.10542
    Effective lift = 1462.4794
smoothSolver:  Solving for Ux, Initial residual = 0.016204143, Final residual = 0.0015075785, No Iterations 8
smoothSolver:  Solving for Uy, Initial residual = 0.0049225117, Final residual = 0.00043865336, No Iterations 9
smoothSolver:  Solving for Uz, Initial residual = 0.016248413, Final residual = 0.0015194148, No Iterations 8
GAMG:  Solving for p, Initial residual = 0.0092532726, Final residual = 0.00081929403, No Iterations 3
time step continuity errors : sum local = 0.0018864075, global = -0.00016136315, cumulative = -0.0059770663
smoothSolver:  Solving for omega, Initial residual = 0.0066140792, Final residual = 0.00063491039, No Iterations 11
smoothSolver:  Solving for k, Initial residual = 0.0028373612, Final residual = 0.00023178076, No Iterations 9
ExecutionTime = 25.8 s  ClockTime = 26 s

Time = 53

rotorDisk output:
    min/max(AOA)   = -71.366535, -8.4291917
    Effective power = -3033.5244
    Effective drag = -175.21184
    Effective lift = 1458.3215
smoothSolver:  Solving for Ux, Initial residual = 0.01564339, Final residual = 0.0014745047, No Iterations 8
smoothSolver:  Solving for Uy, Initial residual = 0.0048215042, Final residual = 0.00044151552, No Iterations 9
smoothSolver:  Solving for Uz, Initial residual = 0.015684461, Final residual = 0.0014856669, No Iterations 8
GAMG:  Solving for p, Initial residual = 0.0090528941, Final residual = 0.00078984784, No Iterations 3
time step continuity errors : sum local = 0.0018034323, global = -0.00015412616, cumulative = -0.0061311925
smoothSolver:  Solving for omega, Initial residual = 0.0064067499, Final residual = 0.00063023005, No Iterations 11
smoothSolver:  Solving for k, Initial residual = 0.0027154654, Final residual = 0.00022487939, No Iterations 9
ExecutionTime = 26.34 s  ClockTime = 26 s

Time = 54

rotorDisk output:
    min/max(AOA)   = -71.236312, -8.4155289
    Effective power = -3017.9166
    Effective drag = -174.32227
    Effective lift = 1454.1394
smoothSolver:  Solving for Ux, Initial residual = 0.015168773, Final residual = 0.0014438743, No Iterations 8
smoothSolver:  Solving for Uy, Initial residual = 0.0047271171, Final residual = 0.00044495145, No Iterations 9
smoothSolver:  Solving for Uz, Initial residual = 0.015199421, Final residual = 0.0014545762, No Iterations 8
GAMG:  Solving for p, Initial residual = 0.0088794239, Final residual = 0.00076526637, No Iterations 3
time step continuity errors : sum local = 0.0017322858, global = -0.00014760358, cumulative = -0.0062787961
smoothSolver:  Solving for omega, Initial residual = 0.0062399856, Final residual = 0.00052149702, No Iterations 12
smoothSolver:  Solving for k, Initial residual = 0.0026092679, Final residual = 0.00021895182, No Iterations 9
ExecutionTime = 26.82 s  ClockTime = 27 s

Time = 55

rotorDisk output:
    min/max(AOA)   = -71.104426, -8.4013437
    Effective power = -3002.3554
    Effective drag = -173.43565
    Effective lift = 1449.9529
smoothSolver:  Solving for Ux, Initial residual = 0.014770643, Final residual = 0.0014150732, No Iterations 8
smoothSolver:  Solving for Uy, Initial residual = 0.0046417459, Final residual = 0.00044890477, No Iterations 9
smoothSolver:  Solving for Uz, Initial residual = 0.014799375, Final residual = 0.0014254994, No Iterations 8
GAMG:  Solving for p, Initial residual = 0.0087292981, Final residual = 0.00074622705, No Iterations 3
time step continuity errors : sum local = 0.0016742306, global = -0.00014173868, cumulative = -0.0064205347
smoothSolver:  Solving for omega, Initial residual = 0.0061805769, Final residual = 0.00051838296, No Iterations 12
smoothSolver:  Solving for k, Initial residual = 0.0025172735, Final residual = 0.00021390823, No Iterations 9
ExecutionTime = 27.31 s  ClockTime = 27 s

Time = 56

rotorDisk output:
    min/max(AOA)   = -70.970829, -8.3867129
    Effective power = -2986.7915
    Effective drag = -172.54963
    Effective lift = 1445.7463
smoothSolver:  Solving for Ux, Initial residual = 0.014425724, Final residual = 0.001387504, No Iterations 8
smoothSolver:  Solving for Uy, Initial residual = 0.0045626955, Final residual = 0.00045328442, No Iterations 9
smoothSolver:  Solving for Uz, Initial residual = 0.014450558, Final residual = 0.0013978061, No Iterations 8
GAMG:  Solving for p, Initial residual = 0.0085832158, Final residual = 0.00073180711, No Iterations 3
time step continuity errors : sum local = 0.0016270031, global = -0.0001364584, cumulative = -0.0065569931
smoothSolver:  Solving for omega, Initial residual = 0.0060048916, Final residual = 0.00051192026, No Iterations 12
smoothSolver:  Solving for k, Initial residual = 0.0024273486, Final residual = 0.00020986496, No Iterations 9
ExecutionTime = 27.8 s  ClockTime = 28 s

Time = 57

rotorDisk output:
    min/max(AOA)   = -70.835574, -8.3716609
    Effective power = -2971.1861
    Effective drag = -171.65995
    Effective lift = 1441.4874
smoothSolver:  Solving for Ux, Initial residual = 0.01413587, Final residual = 0.0013624379, No Iterations 8
smoothSolver:  Solving for Uy, Initial residual = 0.0044892294, Final residual = 0.00038144446, No Iterations 10
smoothSolver:  Solving for Uz, Initial residual = 0.014161039, Final residual = 0.0013727738, No Iterations 8
GAMG:  Solving for p, Initial residual = 0.0084429615, Final residual = 0.0007197363, No Iterations 3
time step continuity errors : sum local = 0.001585514, global = -0.00013085706, cumulative = -0.0066878502
smoothSolver:  Solving for omega, Initial residual = 0.0058887581, Final residual = 0.0005081752, No Iterations 12
smoothSolver:  Solving for k, Initial residual = 0.0023587538, Final residual = 0.00020817191, No Iterations 9
ExecutionTime = 28.28 s  ClockTime = 28 s

Time = 58

rotorDisk output:
    min/max(AOA)   = -70.69402, -8.3555647
    Effective power = -2954.9024
    Effective drag = -170.72491
    Effective lift = 1437.0026
smoothSolver:  Solving for Ux, Initial residual = 0.013933809, Final residual = 0.0013455484, No Iterations 8
smoothSolver:  Solving for Uy, Initial residual = 0.0044295853, Final residual = 0.00038498762, No Iterations 10
smoothSolver:  Solving for Uz, Initial residual = 0.013956715, Final residual = 0.001356011, No Iterations 8
GAMG:  Solving for p, Initial residual = 0.0083428714, Final residual = 0.00071881297, No Iterations 3
time step continuity errors : sum local = 0.00156815, global = -0.00012367559, cumulative = -0.0068115258
smoothSolver:  Solving for omega, Initial residual = 0.0057889065, Final residual = 0.00050368286, No Iterations 12
smoothSolver:  Solving for k, Initial residual = 0.0022926135, Final residual = 0.00020758767, No Iterations 9
ExecutionTime = 28.77 s  ClockTime = 29 s

Time = 59

rotorDisk output:
    min/max(AOA)   = -70.550243, -8.339147
    Effective power = -2938.682
    Effective drag = -169.79252
    Effective lift = 1432.5147
smoothSolver:  Solving for Ux, Initial residual = 0.013756566, Final residual = 0.0013274813, No Iterations 8
smoothSolver:  Solving for Uy, Initial residual = 0.0043714671, Final residual = 0.00038824578, No Iterations 10
smoothSolver:  Solving for Uz, Initial residual = 0.013780015, Final residual = 0.0013382122, No Iterations 8
GAMG:  Solving for p, Initial residual = 0.0082511582, Final residual = 0.00072170803, No Iterations 3
time step continuity errors : sum local = 0.0015593332, global = -0.0001169511, cumulative = -0.0069284769
smoothSolver:  Solving for omega, Initial residual = 0.005661063, Final residual = 0.00049947575, No Iterations 12
smoothSolver:  Solving for k, Initial residual = 0.0022343669, Final residual = 0.00020817429, No Iterations 9
ExecutionTime = 29.26 s  ClockTime = 29 s

Time = 60

rotorDisk output:
    min/max(AOA)   = -70.404763, -8.3224563
    Effective power = -2922.5675
    Effective drag = -168.86493
    Effective lift = 1428.0433
smoothSolver:  Solving for Ux, Initial residual = 0.013590963, Final residual = 0.0013086147, No Iterations 8
smoothSolver:  Solving for Uy, Initial residual = 0.0043189238, Final residual = 0.00039097092, No Iterations 10
smoothSolver:  Solving for Uz, Initial residual = 0.013618549, Final residual = 0.0013195534, No Iterations 8
GAMG:  Solving for p, Initial residual = 0.0081680965, Final residual = 0.00072543249, No Iterations 3
time step continuity errors : sum local = 0.0015524753, global = -0.00011122136, cumulative = -0.0070396983
smoothSolver:  Solving for omega, Initial residual = 0.0056054472, Final residual = 0.00049682984, No Iterations 12
smoothSolver:  Solving for k, Initial residual = 0.0021842851, Final residual = 0.00020984874, No Iterations 9
ExecutionTime = 29.76 s  ClockTime = 30 s

Time = 61

rotorDisk output:
    min/max(AOA)   = -70.257771, -8.3055344
    Effective power = -2906.5654
    Effective drag = -167.9434
    Effective lift = 1423.5891
smoothSolver:  Solving for Ux, Initial residual = 0.013421867, Final residual = 0.0012886593, No Iterations 8
smoothSolver:  Solving for Uy, Initial residual = 0.0042718789, Final residual = 0.00039334166, No Iterations 10
smoothSolver:  Solving for Uz, Initial residual = 0.013453683, Final residual = 0.0012996676, No Iterations 8
GAMG:  Solving for p, Initial residual = 0.0080787208, Final residual = 0.00072892325, No Iterations 3
time step continuity errors : sum local = 0.0015452468, global = -0.00010628162, cumulative = -0.0071459799
smoothSolver:  Solving for omega, Initial residual = 0.0055434863, Final residual = 0.00049196243, No Iterations 12
smoothSolver:  Solving for k, Initial residual = 0.0021328328, Final residual = 0.00021277542, No Iterations 9
ExecutionTime = 30.25 s  ClockTime = 30 s

Time = 62

rotorDisk output:
    min/max(AOA)   = -70.10938, -8.2884077
    Effective power = -2890.616
    Effective drag = -167.02283
    Effective lift = 1419.1292
smoothSolver:  Solving for Ux, Initial residual = 0.013248646, Final residual = 0.0012689191, No Iterations 8
smoothSolver:  Solving for Uy, Initial residual = 0.0042285849, Final residual = 0.00039528145, No Iterations 10
smoothSolver:  Solving for Uz, Initial residual = 0.013286607, Final residual = 0.0012800409, No Iterations 8
GAMG:  Solving for p, Initial residual = 0.0079916107, Final residual = 0.00073182117, No Iterations 3
time step continuity errors : sum local = 0.0015368843, global = -0.00010169931, cumulative = -0.0072476792
smoothSolver:  Solving for omega, Initial residual = 0.0054792142, Final residual = 0.00048660001, No Iterations 12
smoothSolver:  Solving for k, Initial residual = 0.002086093, Final residual = 0.00017403974, No Iterations 10
ExecutionTime = 30.72 s  ClockTime = 31 s

Time = 63

rotorDisk output:
    min/max(AOA)   = -69.95971, -8.2711122
    Effective power = -2874.7282
    Effective drag = -166.10417
    Effective lift = 1414.6644
smoothSolver:  Solving for Ux, Initial residual = 0.013079049, Final residual = 0.00124997, No Iterations 8
smoothSolver:  Solving for Uy, Initial residual = 0.0041854791, Final residual = 0.00039658461, No Iterations 10
smoothSolver:  Solving for Uz, Initial residual = 0.013119767, Final residual = 0.0012611981, No Iterations 8
GAMG:  Solving for p, Initial residual = 0.0079046463, Final residual = 0.000733632, No Iterations 3
time step continuity errors : sum local = 0.0015265059, global = -9.6854253e-05, cumulative = -0.0073445334
smoothSolver:  Solving for omega, Initial residual = 0.0054271332, Final residual = 0.00048247508, No Iterations 12
smoothSolver:  Solving for k, Initial residual = 0.0020404773, Final residual = 0.00017933272, No Iterations 10
ExecutionTime = 31.2 s  ClockTime = 31 s

Time = 64

rotorDisk output:
    min/max(AOA)   = -69.808922, -8.2536731
    Effective power = -2858.9734
    Effective drag = -165.19196
    Effective lift = 1410.2096
smoothSolver:  Solving for Ux, Initial residual = 0.012904602, Final residual = 0.0012300178, No Iterations 8
smoothSolver:  Solving for Uy, Initial residual = 0.0041437806, Final residual = 0.00039743059, No Iterations 10
smoothSolver:  Solving for Uz, Initial residual = 0.012949413, Final residual = 0.0012413508, No Iterations 8
GAMG:  Solving for p, Initial residual = 0.0078166606, Final residual = 0.00073428597, No Iterations 3
time step continuity errors : sum local = 0.0015140198, global = -9.1619057e-05, cumulative = -0.0074361525
smoothSolver:  Solving for omega, Initial residual = 0.0053780049, Final residual = 0.00047771771, No Iterations 12
smoothSolver:  Solving for k, Initial residual = 0.002000079, Final residual = 0.00018617358, No Iterations 10
ExecutionTime = 31.7 s  ClockTime = 32 s

Time = 65

rotorDisk output:
    min/max(AOA)   = -69.657107, -8.23615
    Effective power = -2843.2697
    Effective drag = -164.27916
    Effective lift = 1405.7588
smoothSolver:  Solving for Ux, Initial residual = 0.01272378, Final residual = 0.0012100196, No Iterations 8
smoothSolver:  Solving for Uy, Initial residual = 0.0041030799, Final residual = 0.00039788858, No Iterations 10
smoothSolver:  Solving for Uz, Initial residual = 0.012771552, Final residual = 0.0012213897, No Iterations 8
GAMG:  Solving for p, Initial residual = 0.0077285874, Final residual = 0.00073317557, No Iterations 3
time step continuity errors : sum local = 0.0014982529, global = -9.0914515e-05, cumulative = -0.007527067
smoothSolver:  Solving for omega, Initial residual = 0.0053569009, Final residual = 0.0004732829, No Iterations 12
smoothSolver:  Solving for k, Initial residual = 0.0019672579, Final residual = 0.00019373903, No Iterations 10
ExecutionTime = 32.23 s  ClockTime = 32 s

Time = 66

rotorDisk output:
    min/max(AOA)   = -69.504429, -8.2185786
    Effective power = -2827.7489
    Effective drag = -163.37612
    Effective lift = 1401.348
smoothSolver:  Solving for Ux, Initial residual = 0.012531417, Final residual = 0.0011899382, No Iterations 8
smoothSolver:  Solving for Uy, Initial residual = 0.0040605101, Final residual = 0.00039795472, No Iterations 10
smoothSolver:  Solving for Uz, Initial residual = 0.012582313, Final residual = 0.0012013617, No Iterations 8
GAMG:  Solving for p, Initial residual = 0.0076358846, Final residual = 0.00073096565, No Iterations 3
time step continuity errors : sum local = 0.0014810233, global = -8.9200165e-05, cumulative = -0.0076162672
smoothSolver:  Solving for omega, Initial residual = 0.0053010856, Final residual = 0.00046775346, No Iterations 12
smoothSolver:  Solving for k, Initial residual = 0.0019415308, Final residual = 0.00016542922, No Iterations 11
ExecutionTime = 32.73 s  ClockTime = 33 s

Time = 67

rotorDisk output:
    min/max(AOA)   = -69.35104, -8.2009976
    Effective power = -2812.4158
    Effective drag = -162.48124
    Effective lift = 1396.9665
smoothSolver:  Solving for Ux, Initial residual = 0.012357233, Final residual = 0.0011708397, No Iterations 8
smoothSolver:  Solving for Uy, Initial residual = 0.0040169218, Final residual = 0.00039751918, No Iterations 10
smoothSolver:  Solving for Uz, Initial residual = 0.012410602, Final residual = 0.001182287, No Iterations 8
GAMG:  Solving for p, Initial residual = 0.0075444704, Final residual = 0.00072815019, No Iterations 3
time step continuity errors : sum local = 0.0014631342, global = -8.6979199e-05, cumulative = -0.0077032464
smoothSolver:  Solving for omega, Initial residual = 0.0052200624, Final residual = 0.00046184038, No Iterations 12
smoothSolver:  Solving for k, Initial residual = 0.0019181768, Final residual = 0.00017166674, No Iterations 11
ExecutionTime = 33.24 s  ClockTime = 33 s

Time = 68

rotorDisk output:
    min/max(AOA)   = -69.197079, -8.1834383
    Effective power = -2797.2774
    Effective drag = -161.59586
    Effective lift = 1392.6165
smoothSolver:  Solving for Ux, Initial residual = 0.012186398, Final residual = 0.001151799, No Iterations 8
smoothSolver:  Solving for Uy, Initial residual = 0.0039712932, Final residual = 0.00039665674, No Iterations 10
smoothSolver:  Solving for Uz, Initial residual = 0.012239434, Final residual = 0.001163248, No Iterations 8
GAMG:  Solving for p, Initial residual = 0.0074562094, Final residual = 0.0007248054, No Iterations 3
time step continuity errors : sum local = 0.0014447098, global = -8.3925405e-05, cumulative = -0.0077871718
smoothSolver:  Solving for omega, Initial residual = 0.0051843875, Final residual = 0.00045681594, No Iterations 12
smoothSolver:  Solving for k, Initial residual = 0.0019039821, Final residual = 0.00017787699, No Iterations 11
ExecutionTime = 33.72 s  ClockTime = 34 s

Time = 69

rotorDisk output:
    min/max(AOA)   = -69.042711, -8.1659375
    Effective power = -2782.3948
    Effective drag = -160.72537
    Effective lift = 1388.309
smoothSolver:  Solving for Ux, Initial residual = 0.01201146, Final residual = 0.0011321052, No Iterations 8
smoothSolver:  Solving for Uy, Initial residual = 0.0039220586, Final residual = 0.0003314193, No Iterations 11
smoothSolver:  Solving for Uz, Initial residual = 0.01206566, Final residual = 0.0011435997, No Iterations 8
GAMG:  Solving for p, Initial residual = 0.0073410384, Final residual = 0.00071830436, No Iterations 3
time step continuity errors : sum local = 0.0014204696, global = -7.859261e-05, cumulative = -0.0078657644
smoothSolver:  Solving for omega, Initial residual = 0.0051255227, Final residual = 0.00045120922, No Iterations 12
smoothSolver:  Solving for k, Initial residual = 0.0019050336, Final residual = 0.00018479846, No Iterations 11
ExecutionTime = 34.22 s  ClockTime = 34 s

Time = 70

rotorDisk output:
    min/max(AOA)   = -68.883557, -8.1479143
    Effective power = -2767.4003
    Effective drag = -159.84807
    Effective lift = 1383.9301
smoothSolver:  Solving for Ux, Initial residual = 0.011867161, Final residual = 0.0011182964, No Iterations 8
smoothSolver:  Solving for Uy, Initial residual = 0.0038780818, Final residual = 0.00033001201, No Iterations 11
smoothSolver:  Solving for Uz, Initial residual = 0.01192024, Final residual = 0.0011296519, No Iterations 8
GAMG:  Solving for p, Initial residual = 0.0072623509, Final residual = 0.00071658614, No Iterations 3
time step continuity errors : sum local = 0.0014056935, global = -7.1218627e-05, cumulative = -0.007936983
smoothSolver:  Solving for omega, Initial residual = 0.0050924305, Final residual = 0.00044650185, No Iterations 12
smoothSolver:  Solving for k, Initial residual = 0.0019144453, Final residual = 0.00015864435, No Iterations 12
ExecutionTime = 34.77 s  ClockTime = 35 s

Time = 71

rotorDisk output:
    min/max(AOA)   = -68.723936, -8.1300368
    Effective power = -2752.6886
    Effective drag = -158.98732
    Effective lift = 1379.61
smoothSolver:  Solving for Ux, Initial residual = 0.011714262, Final residual = 0.0011027596, No Iterations 8
smoothSolver:  Solving for Uy, Initial residual = 0.0038265137, Final residual = 0.00032817435, No Iterations 11
smoothSolver:  Solving for Uz, Initial residual = 0.011767014, Final residual = 0.0011140544, No Iterations 8
GAMG:  Solving for p, Initial residual = 0.0071833037, Final residual = 0.00071211216, No Iterations 3
time step continuity errors : sum local = 0.0013861477, global = -7.0092692e-05, cumulative = -0.0080070757
smoothSolver:  Solving for omega, Initial residual = 0.0051160326, Final residual = 0.00044199383, No Iterations 12
smoothSolver:  Solving for k, Initial residual = 0.0019191014, Final residual = 0.00016383636, No Iterations 12
ExecutionTime = 35.28 s  ClockTime = 36 s

Time = 72

rotorDisk output:
    min/max(AOA)   = -68.56446, -8.1123262
    Effective power = -2738.2228
    Effective drag = -158.13954
    Effective lift = 1375.3481
smoothSolver:  Solving for Ux, Initial residual = 0.011555703, Final residual = 0.0010853876, No Iterations 8
smoothSolver:  Solving for Uy, Initial residual = 0.0037734561, Final residual = 0.00032597634, No Iterations 11
smoothSolver:  Solving for Uz, Initial residual = 0.011607329, Final residual = 0.0010964834, No Iterations 8
GAMG:  Solving for p, Initial residual = 0.0070943184, Final residual = 0.00070857171, No Iterations 3
time step continuity errors : sum local = 0.0013691536, global = -6.6945059e-05, cumulative = -0.0080740208
smoothSolver:  Solving for omega, Initial residual = 0.0050704199, Final residual = 0.00043590322, No Iterations 12
smoothSolver:  Solving for k, Initial residual = 0.001924893, Final residual = 0.00016881451, No Iterations 12
ExecutionTime = 35.78 s  ClockTime = 36 s

Time = 73

rotorDisk output:
    min/max(AOA)   = -68.405335, -8.0948034
    Effective power = -2724.0188
    Effective drag = -157.30445
    Effective lift = 1371.1433
smoothSolver:  Solving for Ux, Initial residual = 0.011389178, Final residual = 0.0010669428, No Iterations 8
smoothSolver:  Solving for Uy, Initial residual = 0.0037211725, Final residual = 0.00032345565, No Iterations 11
smoothSolver:  Solving for Uz, Initial residual = 0.011439919, Final residual = 0.0010779972, No Iterations 8
GAMG:  Solving for p, Initial residual = 0.0070008915, Final residual = 0.00040079519, No Iterations 4
time step continuity errors : sum local = 0.00076891505, global = -4.5861221e-05, cumulative = -0.008119882
smoothSolver:  Solving for omega, Initial residual = 0.0050067593, Final residual = 0.00043029066, No Iterations 12
smoothSolver:  Solving for k, Initial residual = 0.0019356386, Final residual = 0.0001738697, No Iterations 12
ExecutionTime = 36.31 s  ClockTime = 37 s

Time = 74

rotorDisk output:
    min/max(AOA)   = -68.246531, -8.0775019
    Effective power = -2710.2131
    Effective drag = -156.49307
    Effective lift = 1367.0229
smoothSolver:  Solving for Ux, Initial residual = 0.011357375, Final residual = 0.0010445767, No Iterations 8
smoothSolver:  Solving for Uy, Initial residual = 0.0037850895, Final residual = 0.00032172244, No Iterations 11
smoothSolver:  Solving for Uz, Initial residual = 0.01143439, Final residual = 0.0010586779, No Iterations 8
GAMG:  Solving for p, Initial residual = 0.0068044731, Final residual = 0.00067331865, No Iterations 3
time step continuity errors : sum local = 0.0012821049, global = -5.3974296e-05, cumulative = -0.0081738563
smoothSolver:  Solving for omega, Initial residual = 0.0049591237, Final residual = 0.00042412388, No Iterations 12
smoothSolver:  Solving for k, Initial residual = 0.0019486455, Final residual = 0.0001784382, No Iterations 12
ExecutionTime = 36.8 s  ClockTime = 37 s

Time = 75

rotorDisk output:
    min/max(AOA)   = -68.088003, -8.0603707
    Effective power = -2696.5771
    Effective drag = -155.68916
    Effective lift = 1362.9262
smoothSolver:  Solving for Ux, Initial residual = 0.01091241, Final residual = 0.0010245759, No Iterations 8
smoothSolver:  Solving for Uy, Initial residual = 0.0035823243, Final residual = 0.0003173563, No Iterations 11
smoothSolver:  Solving for Uz, Initial residual = 0.010951913, Final residual = 0.001034268, No Iterations 8
GAMG:  Solving for p, Initial residual = 0.0067362216, Final residual = 0.00038665942, No Iterations 4
time step continuity errors : sum local = 0.0007318235, global = -4.1191933e-05, cumulative = -0.0082150482
smoothSolver:  Solving for omega, Initial residual = 0.0049270585, Final residual = 0.00041787345, No Iterations 12
smoothSolver:  Solving for k, Initial residual = 0.0019625458, Final residual = 0.00018254313, No Iterations 12
ExecutionTime = 37.29 s  ClockTime = 38 s

Time = 76

rotorDisk output:
    min/max(AOA)   = -67.931411, -8.0435082
    Effective power = -2683.2277
    Effective drag = -154.90014
    Effective lift = 1358.9132
smoothSolver:  Solving for Ux, Initial residual = 0.010933778, Final residual = 0.0010056556, No Iterations 8
smoothSolver:  Solving for Uy, Initial residual = 0.0036381341, Final residual = 0.00031494426, No Iterations 11
smoothSolver:  Solving for Uz, Initial residual = 0.010991807, Final residual = 0.0010180745, No Iterations 8
GAMG:  Solving for p, Initial residual = 0.0065352175, Final residual = 0.00064009488, No Iterations 3
time step continuity errors : sum local = 0.0012027722, global = -4.9904786e-05, cumulative = -0.008264953
smoothSolver:  Solving for omega, Initial residual = 0.0048715919, Final residual = 0.00041283811, No Iterations 12
smoothSolver:  Solving for k, Initial residual = 0.0019763121, Final residual = 0.00018620887, No Iterations 12
ExecutionTime = 37.78 s  ClockTime = 38 s

Time = 77

rotorDisk output:
    min/max(AOA)   = -67.774809, -8.0268349
    Effective power = -2670.0643
    Effective drag = -154.12184
    Effective lift = 1354.9507
smoothSolver:  Solving for Ux, Initial residual = 0.010514871, Final residual = 0.00098648709, No Iterations 8
smoothSolver:  Solving for Uy, Initial residual = 0.0034466596, Final residual = 0.00031062215, No Iterations 11
smoothSolver:  Solving for Uz, Initial residual = 0.010542695, Final residual = 0.00099492185, No Iterations 8
GAMG:  Solving for p, Initial residual = 0.0064655608, Final residual = 0.00064456882, No Iterations 3
time step continuity errors : sum local = 0.0012041533, global = -5.3633358e-05, cumulative = -0.0083185864
smoothSolver:  Solving for omega, Initial residual = 0.0047968498, Final residual = 0.00040559627, No Iterations 12
smoothSolver:  Solving for k, Initial residual = 0.0019837792, Final residual = 0.00018915172, No Iterations 12
ExecutionTime = 38.28 s  ClockTime = 39 s

Time = 78

rotorDisk output:
    min/max(AOA)   = -67.619782, -8.0104295
    Effective power = -2657.2374
    Effective drag = -153.3636
    Effective lift = 1351.0723
smoothSolver:  Solving for Ux, Initial residual = 0.01040558, Final residual = 0.00097037479, No Iterations 8
smoothSolver:  Solving for Uy, Initial residual = 0.0033943454, Final residual = 0.00030712013, No Iterations 11
smoothSolver:  Solving for Uz, Initial residual = 0.010424773, Final residual = 0.00097886625, No Iterations 8
GAMG:  Solving for p, Initial residual = 0.006371015, Final residual = 0.0003666291, No Iterations 4
time step continuity errors : sum local = 0.00068060215, global = -2.9201512e-05, cumulative = -0.0083477879
smoothSolver:  Solving for omega, Initial residual = 0.0047295302, Final residual = 0.00039859853, No Iterations 12
smoothSolver:  Solving for k, Initial residual = 0.0019936553, Final residual = 0.00019241458, No Iterations 12
ExecutionTime = 38.76 s  ClockTime = 39 s

Time = 79

rotorDisk output:
    min/max(AOA)   = -67.466616, -7.9943099
    Effective power = -2644.761
    Effective drag = -152.6264
    Effective lift = 1347.2824
smoothSolver:  Solving for Ux, Initial residual = 0.010369092, Final residual = 0.00094883428, No Iterations 8
smoothSolver:  Solving for Uy, Initial residual = 0.0034482815, Final residual = 0.0003043328, No Iterations 11
smoothSolver:  Solving for Uz, Initial residual = 0.010426279, Final residual = 0.00096103925, No Iterations 8
GAMG:  Solving for p, Initial residual = 0.0062015422, Final residual = 0.0006115152, No Iterations 3
time step continuity errors : sum local = 0.0011277263, global = -3.4463272e-05, cumulative = -0.0083822512
smoothSolver:  Solving for omega, Initial residual = 0.0046867081, Final residual = 0.00039259708, No Iterations 12
smoothSolver:  Solving for k, Initial residual = 0.0020110744, Final residual = 0.00019541207, No Iterations 12
ExecutionTime = 39.26 s  ClockTime = 40 s

Time = 80

rotorDisk output:
    min/max(AOA)   = -67.313777, -7.9784095
    Effective power = -2632.5304
    Effective drag = -151.90352
    Effective lift = 1343.5607
smoothSolver:  Solving for Ux, Initial residual = 0.0099720392, Final residual = 0.00092813533, No Iterations 8
smoothSolver:  Solving for Uy, Initial residual = 0.0032647902, Final residual = 0.00029946026, No Iterations 11
smoothSolver:  Solving for Uz, Initial residual = 0.009996648, Final residual = 0.0009369001, No Iterations 8
GAMG:  Solving for p, Initial residual = 0.0061540764, Final residual = 0.0003553254, No Iterations 4
time step continuity errors : sum local = 0.00065179602, global = -2.2720726e-05, cumulative = -0.0084049719
smoothSolver:  Solving for omega, Initial residual = 0.0045965782, Final residual = 0.00038575435, No Iterations 12
[...]
ExecutionTime = 102.79 s  ClockTime = 104 s

Time = 207

rotorDisk output:
    min/max(AOA)   = -61.431866, -7.4488019
    Effective power = -2280.1393
    Effective drag = -130.34733
    Effective lift = 1226.0559
smoothSolver:  Solving for Ux, Initial residual = 0.00019046628, Final residual = 1.6695638e-05, No Iterations 6
smoothSolver:  Solving for Uy, Initial residual = 5.6779353e-05, Final residual = 4.9448751e-06, No Iterations 10
smoothSolver:  Solving for Uz, Initial residual = 0.00019114141, Final residual = 1.6857263e-05, No Iterations 6
GAMG:  Solving for p, Initial residual = 0.00013676559, Final residual = 8.9535717e-06, No Iterations 3
time step continuity errors : sum local = 1.4026567e-05, global = 4.1347024e-07, cumulative = -0.0079605528
smoothSolver:  Solving for omega, Initial residual = 8.690939e-05, Final residual = 8.0623455e-06, No Iterations 12
smoothSolver:  Solving for k, Initial residual = 6.5795917e-05, Final residual = 6.380074e-06, No Iterations 13
ExecutionTime = 103.24 s  ClockTime = 104 s

Time = 208

rotorDisk output:
    min/max(AOA)   = -61.429557, -7.4486116
    Effective power = -2280.0351
    Effective drag = -130.34081
    Effective lift = 1226.0181
smoothSolver:  Solving for Ux, Initial residual = 0.00018366597, Final residual = 1.6101893e-05, No Iterations 6
smoothSolver:  Solving for Uy, Initial residual = 5.4746144e-05, Final residual = 4.7749395e-06, No Iterations 10
smoothSolver:  Solving for Uz, Initial residual = 0.00018432723, Final residual = 1.6256472e-05, No Iterations 6
GAMG:  Solving for p, Initial residual = 0.00013180065, Final residual = 8.6290024e-06, No Iterations 3
time step continuity errors : sum local = 1.3517266e-05, global = 3.9322664e-07, cumulative = -0.0079601596
smoothSolver:  Solving for omega, Initial residual = 8.3865357e-05, Final residual = 7.7854958e-06, No Iterations 12
smoothSolver:  Solving for k, Initial residual = 6.335336e-05, Final residual = 6.1452525e-06, No Iterations 13
ExecutionTime = 103.7 s  ClockTime = 105 s

Time = 209

rotorDisk output:
    min/max(AOA)   = -61.427325, -7.448428
    Effective power = -2279.9344
    Effective drag = -130.3345
    Effective lift = 1225.9815
smoothSolver:  Solving for Ux, Initial residual = 0.00017713351, Final residual = 1.5533881e-05, No Iterations 6
smoothSolver:  Solving for Uy, Initial residual = 5.2794487e-05, Final residual = 4.612139e-06, No Iterations 10
smoothSolver:  Solving for Uz, Initial residual = 0.00017777348, Final residual = 1.5681882e-05, No Iterations 6
GAMG:  Solving for p, Initial residual = 0.00012702756, Final residual = 8.3182388e-06, No Iterations 3
time step continuity errors : sum local = 1.3029674e-05, global = 3.7431205e-07, cumulative = -0.0079597853
smoothSolver:  Solving for omega, Initial residual = 8.0932432e-05, Final residual = 7.5185041e-06, No Iterations 12
smoothSolver:  Solving for k, Initial residual = 6.100781e-05, Final residual = 5.9195207e-06, No Iterations 13
ExecutionTime = 104.21 s  ClockTime = 105 s

Time = 210

rotorDisk output:
    min/max(AOA)   = -61.425168, -7.4482507
    Effective power = -2279.837
    Effective drag = -130.3284
    Effective lift = 1225.9461
smoothSolver:  Solving for Ux, Initial residual = 0.00017085765, Final residual = 1.4990233e-05, No Iterations 6
smoothSolver:  Solving for Uy, Initial residual = 5.0921191e-05, Final residual = 4.4561074e-06, No Iterations 10
smoothSolver:  Solving for Uz, Initial residual = 0.00017147427, Final residual = 1.5132103e-05, No Iterations 6
GAMG:  Solving for p, Initial residual = 0.00012244216, Final residual = 8.0206392e-06, No Iterations 3
time step continuity errors : sum local = 1.256278e-05, global = 3.5677829e-07, cumulative = -0.0079594285
smoothSolver:  Solving for omega, Initial residual = 7.8118786e-05, Final residual = 7.2615581e-06, No Iterations 12
smoothSolver:  Solving for k, Initial residual = 5.8755826e-05, Final residual = 5.7025194e-06, No Iterations 13
ExecutionTime = 104.67 s  ClockTime = 106 s

Time = 211

rotorDisk output:
    min/max(AOA)   = -61.423083, -7.4480794
    Effective power = -2279.7428
    Effective drag = -130.32251
    Effective lift = 1225.9119
smoothSolver:  Solving for Ux, Initial residual = 0.00016482624, Final residual = 1.4469371e-05, No Iterations 6
smoothSolver:  Solving for Uy, Initial residual = 4.9123135e-05, Final residual = 4.3065201e-06, No Iterations 10
smoothSolver:  Solving for Uz, Initial residual = 0.00016542199, Final residual = 1.4605747e-05, No Iterations 6
GAMG:  Solving for p, Initial residual = 0.00011803747, Final residual = 7.7355213e-06, No Iterations 3
time step continuity errors : sum local = 1.2115509e-05, global = 3.4056317e-07, cumulative = -0.007959088
smoothSolver:  Solving for omega, Initial residual = 7.5429351e-05, Final residual = 7.0138902e-06, No Iterations 12
smoothSolver:  Solving for k, Initial residual = 5.659332e-05, Final residual = 5.4939062e-06, No Iterations 13
ExecutionTime = 105.14 s  ClockTime = 106 s

Time = 212

rotorDisk output:
    min/max(AOA)   = -61.421067, -7.4479139
    Effective power = -2279.6516
    Effective drag = -130.3168
    Effective lift = 1225.8788
smoothSolver:  Solving for Ux, Initial residual = 0.00015902972, Final residual = 1.3970365e-05, No Iterations 6
smoothSolver:  Solving for Uy, Initial residual = 4.7397171e-05, Final residual = 4.1630696e-06, No Iterations 10
smoothSolver:  Solving for Uz, Initial residual = 0.00015960329, Final residual = 1.4101611e-05, No Iterations 6
GAMG:  Solving for p, Initial residual = 0.00011380471, Final residual = 7.4624416e-06, No Iterations 3
time step continuity errors : sum local = 1.168716e-05, global = 3.255283e-07, cumulative = -0.0079587624
smoothSolver:  Solving for omega, Initial residual = 7.2858249e-05, Final residual = 6.7747169e-06, No Iterations 12
smoothSolver:  Solving for k, Initial residual = 5.4517037e-05, Final residual = 5.293404e-06, No Iterations 13
ExecutionTime = 105.61 s  ClockTime = 107 s

Time = 213

rotorDisk output:
    min/max(AOA)   = -61.419117, -7.447754
    Effective power = -2279.5633
    Effective drag = -130.31127
    Effective lift = 1225.8467
smoothSolver:  Solving for Ux, Initial residual = 0.00015345609, Final residual = 1.3492116e-05, No Iterations 6
smoothSolver:  Solving for Uy, Initial residual = 4.5740185e-05, Final residual = 4.0254328e-06, No Iterations 10
smoothSolver:  Solving for Uz, Initial residual = 0.00015400932, Final residual = 1.3618632e-05, No Iterations 6
GAMG:  Solving for p, Initial residual = 0.00010973714, Final residual = 7.2008643e-06, No Iterations 3
time step continuity errors : sum local = 1.127689e-05, global = 3.115821e-07, cumulative = -0.0079584508
smoothSolver:  Solving for omega, Initial residual = 7.0458116e-05, Final residual = 6.5439946e-06, No Iterations 12
smoothSolver:  Solving for k, Initial residual = 5.2523922e-05, Final residual = 5.1007228e-06, No Iterations 13
ExecutionTime = 106.1 s  ClockTime = 107 s

Time = 214

rotorDisk output:
    min/max(AOA)   = -61.417231, -7.4475995
    Effective power = -2279.4778
    Effective drag = -130.30592
    Effective lift = 1225.8156
smoothSolver:  Solving for Ux, Initial residual = 0.0001480985, Final residual = 1.3033673e-05, No Iterations 6
smoothSolver:  Solving for Uy, Initial residual = 4.4149324e-05, Final residual = 3.8933078e-06, No Iterations 10
smoothSolver:  Solving for Uz, Initial residual = 0.00014863277, Final residual = 1.3155713e-05, No Iterations 6
GAMG:  Solving for p, Initial residual = 0.00010582935, Final residual = 6.9502811e-06, No Iterations 3
time step continuity errors : sum local = 1.0883898e-05, global = 2.9865863e-07, cumulative = -0.0079581522
smoothSolver:  Solving for omega, Initial residual = 6.8136505e-05, Final residual = 6.3218197e-06, No Iterations 12
smoothSolver:  Solving for k, Initial residual = 5.0610605e-05, Final residual = 4.9155536e-06, No Iterations 13
ExecutionTime = 106.61 s  ClockTime = 108 s

Time = 215

rotorDisk output:
    min/max(AOA)   = -61.415405, -7.4474501
    Effective power = -2279.395
    Effective drag = -130.30074
    Effective lift = 1225.7855
smoothSolver:  Solving for Ux, Initial residual = 0.00014294782, Final residual = 1.2593958e-05, No Iterations 6
smoothSolver:  Solving for Uy, Initial residual = 4.2621885e-05, Final residual = 3.7664287e-06, No Iterations 10
smoothSolver:  Solving for Uz, Initial residual = 0.00014346357, Final residual = 1.2711737e-05, No Iterations 6
GAMG:  Solving for p, Initial residual = 0.00010207356, Final residual = 6.7101687e-06, No Iterations 3
time step continuity errors : sum local = 1.0507359e-05, global = 2.8662703e-07, cumulative = -0.0079578656
smoothSolver:  Solving for omega, Initial residual = 6.5900976e-05, Final residual = 6.1077284e-06, No Iterations 12
smoothSolver:  Solving for k, Initial residual = 4.8773619e-05, Final residual = 4.7375942e-06, No Iterations 13
ExecutionTime = 107.07 s  ClockTime = 108 s

Time = 216

rotorDisk output:
    min/max(AOA)   = -61.413638, -7.4473056
    Effective power = -2279.3148
    Effective drag = -130.29571
    Effective lift = 1225.7564
smoothSolver:  Solving for Ux, Initial residual = 0.00013799525, Final residual = 1.217214e-05, No Iterations 6
smoothSolver:  Solving for Uy, Initial residual = 4.1154972e-05, Final residual = 3.6445518e-06, No Iterations 10
smoothSolver:  Solving for Uz, Initial residual = 0.00013849276, Final residual = 1.2285852e-05, No Iterations 6
GAMG:  Solving for p, Initial residual = 9.8462713e-05, Final residual = 6.4800871e-06, No Iterations 3
time step continuity errors : sum local = 1.014658e-05, global = 2.7531478e-07, cumulative = -0.0079575902
smoothSolver:  Solving for omega, Initial residual = 6.3740233e-05, Final residual = 5.9013087e-06, No Iterations 12
smoothSolver:  Solving for k, Initial residual = 4.7010006e-05, Final residual = 4.566592e-06, No Iterations 13
ExecutionTime = 107.52 s  ClockTime = 109 s

Time = 217

rotorDisk output:
    min/max(AOA)   = -61.411928, -7.4471659
    Effective power = -2279.2371
    Effective drag = -130.29085
    Effective lift = 1225.7281
smoothSolver:  Solving for Ux, Initial residual = 0.00013323625, Final residual = 1.1767674e-05, No Iterations 6
smoothSolver:  Solving for Uy, Initial residual = 3.9745709e-05, Final residual = 3.5274406e-06, No Iterations 10
smoothSolver:  Solving for Uz, Initial residual = 0.00013371599, Final residual = 1.1877489e-05, No Iterations 6
GAMG:  Solving for p, Initial residual = 9.4993189e-05, Final residual = 6.2596979e-06, No Iterations 3
time step continuity errors : sum local = 9.8010254e-06, global = 2.645963e-07, cumulative = -0.0079573257
smoothSolver:  Solving for omega, Initial residual = 6.1689968e-05, Final residual = 5.7009606e-06, No Iterations 12
smoothSolver:  Solving for k, Initial residual = 4.5318938e-05, Final residual = 4.4024103e-06, No Iterations 13
ExecutionTime = 107.97 s  ClockTime = 109 s

Time = 218

rotorDisk output:
    min/max(AOA)   = -61.410271, -7.4470307
    Effective power = -2279.1617
    Effective drag = -130.28613
    Effective lift = 1225.7008
smoothSolver:  Solving for Ux, Initial residual = 0.00012867549, Final residual = 1.1380751e-05, No Iterations 6
smoothSolver:  Solving for Uy, Initial residual = 3.8391759e-05, Final residual = 3.4148163e-06, No Iterations 10
smoothSolver:  Solving for Uz, Initial residual = 0.00012913574, Final residual = 1.1486777e-05, No Iterations 6
GAMG:  Solving for p, Initial residual = 9.1668368e-05, Final residual = 6.0489855e-06, No Iterations 3
time step continuity errors : sum local = 9.470668e-06, global = 2.5460646e-07, cumulative = -0.007957071
smoothSolver:  Solving for omega, Initial residual = 5.9643725e-05, Final residual = 5.5049106e-06, No Iterations 12
smoothSolver:  Solving for k, Initial residual = 4.3702005e-05, Final residual = 4.2450498e-06, No Iterations 13
ExecutionTime = 108.42 s  ClockTime = 109 s

Time = 219

rotorDisk output:
    min/max(AOA)   = -61.408667, -7.4468998
    Effective power = -2279.0887
    Effective drag = -130.28156
    Effective lift = 1225.6742
smoothSolver:  Solving for Ux, Initial residual = 0.00012432206, Final residual = 1.1011718e-05, No Iterations 6
smoothSolver:  Solving for Uy, Initial residual = 3.7092122e-05, Final residual = 3.3062811e-06, No Iterations 10
smoothSolver:  Solving for Uz, Initial residual = 0.00012476268, Final residual = 1.1113418e-05, No Iterations 6
GAMG:  Solving for p, Initial residual = 8.8495532e-05, Final residual = 5.8478146e-06, No Iterations 3
time step continuity errors : sum local = 9.1552926e-06, global = 2.4591834e-07, cumulative = -0.0079568251
smoothSolver:  Solving for omega, Initial residual = 5.7814477e-05, Final residual = 5.3197173e-06, No Iterations 12
smoothSolver:  Solving for k, Initial residual = 4.2153872e-05, Final residual = 4.0940173e-06, No Iterations 13
ExecutionTime = 108.84 s  ClockTime = 110 s

Time = 220

rotorDisk output:
    min/max(AOA)   = -61.407112, -7.4467732
    Effective power = -2279.0178
    Effective drag = -130.27713
    Effective lift = 1225.6485
smoothSolver:  Solving for Ux, Initial residual = 0.00012013969, Final residual = 1.0655634e-05, No Iterations 6
smoothSolver:  Solving for Uy, Initial residual = 3.5848529e-05, Final residual = 3.2016012e-06, No Iterations 10
smoothSolver:  Solving for Uz, Initial residual = 0.00012056156, Final residual = 1.0753288e-05, No Iterations 6
GAMG:  Solving for p, Initial residual = 8.5452167e-05, Final residual = 5.6541256e-06, No Iterations 3
time step continuity errors : sum local = 8.8516714e-06, global = 2.3848166e-07, cumulative = -0.0079565866
smoothSolver:  Solving for omega, Initial residual = 5.6000297e-05, Final residual = 5.1405722e-06, No Iterations 12
smoothSolver:  Solving for k, Initial residual = 4.0667159e-05, Final residual = 3.9488023e-06, No Iterations 13
ExecutionTime = 109.29 s  ClockTime = 110 s

Time = 221

rotorDisk output:
    min/max(AOA)   = -61.405606, -7.4466507
    Effective power = -2278.9492
    Effective drag = -130.27283
    Effective lift = 1225.6235
smoothSolver:  Solving for Ux, Initial residual = 0.00011611935, Final residual = 1.0312491e-05, No Iterations 6
smoothSolver:  Solving for Uy, Initial residual = 3.4652985e-05, Final residual = 3.1006333e-06, No Iterations 10
smoothSolver:  Solving for Uz, Initial residual = 0.0001165233, Final residual = 1.0406267e-05, No Iterations 6
GAMG:  Solving for p, Initial residual = 8.2530162e-05, Final residual = 5.46814e-06, No Iterations 3
time step continuity errors : sum local = 8.5601484e-06, global = 2.3191646e-07, cumulative = -0.0079563547
smoothSolver:  Solving for omega, Initial residual = 5.4291644e-05, Final residual = 4.9669283e-06, No Iterations 12
smoothSolver:  Solving for k, Initial residual = 3.924031e-05, Final residual = 3.8093389e-06, No Iterations 13
ExecutionTime = 109.73 s  ClockTime = 111 s

Time = 222

rotorDisk output:
    min/max(AOA)   = -61.404147, -7.4465321
    Effective power = -2278.8826
    Effective drag = -130.26866
    Effective lift = 1225.5993
smoothSolver:  Solving for Ux, Initial residual = 0.00011225214, Final residual = 9.9821013e-06, No Iterations 6
smoothSolver:  Solving for Uy, Initial residual = 3.350343e-05, Final residual = 3.0031509e-06, No Iterations 10
smoothSolver:  Solving for Uz, Initial residual = 0.00011264102, Final residual = 1.0072022e-05, No Iterations 6
GAMG:  Solving for p, Initial residual = 7.9725227e-05, Final residual = 5.2896162e-06, No Iterations 3
time step continuity errors : sum local = 8.2803414e-06, global = 2.2599752e-07, cumulative = -0.0079561287
smoothSolver:  Solving for omega, Initial residual = 5.2584247e-05, Final residual = 4.7984848e-06, No Iterations 12
smoothSolver:  Solving for k, Initial residual = 3.787164e-05, Final residual = 3.6754349e-06, No Iterations 13
ExecutionTime = 110.17 s  ClockTime = 111 s

Time = 223

rotorDisk output:
    min/max(AOA)   = -61.402733, -7.4464173
    Effective power = -2278.818
    Effective drag = -130.26462
    Effective lift = 1225.5758
smoothSolver:  Solving for Ux, Initial residual = 0.00010853704, Final residual = 9.6639419e-06, No Iterations 6
smoothSolver:  Solving for Uy, Initial residual = 3.2398278e-05, Final residual = 2.9089374e-06, No Iterations 10
smoothSolver:  Solving for Uz, Initial residual = 0.00010891287, Final residual = 9.7502461e-06, No Iterations 6
GAMG:  Solving for p, Initial residual = 7.7033909e-05, Final residual = 5.1181514e-06, No Iterations 3
time step continuity errors : sum local = 8.0116173e-06, global = 2.2066644e-07, cumulative = -0.0079559081
smoothSolver:  Solving for omega, Initial residual = 5.0988516e-05, Final residual = 4.6371799e-06, No Iterations 12
smoothSolver:  Solving for k, Initial residual = 3.6558401e-05, Final residual = 3.5467863e-06, No Iterations 13
ExecutionTime = 110.65 s  ClockTime = 112 s

Time = 224

rotorDisk output:
    min/max(AOA)   = -61.401363, -7.4463062
    Effective power = -2278.7554
    Effective drag = -130.2607
    Effective lift = 1225.553
smoothSolver:  Solving for Ux, Initial residual = 0.00010496254, Final residual = 9.3567521e-06, No Iterations 6
smoothSolver:  Solving for Uy, Initial residual = 3.1336139e-05, Final residual = 2.8178421e-06, No Iterations 10
smoothSolver:  Solving for Uz, Initial residual = 0.00010532528, Final residual = 9.4396947e-06, No Iterations 6
GAMG:  Solving for p, Initial residual = 7.4448108e-05, Final residual = 4.9530683e-06, No Iterations 3
time step continuity errors : sum local = 7.7529129e-06, global = 2.1573015e-07, cumulative = -0.0079556923
smoothSolver:  Solving for omega, Initial residual = 4.9372114e-05, Final residual = 4.4803916e-06, No Iterations 12
smoothSolver:  Solving for k, Initial residual = 3.5297898e-05, Final residual = 3.4231864e-06, No Iterations 13
ExecutionTime = 111.1 s  ClockTime = 112 s

Time = 225

rotorDisk output:
    min/max(AOA)   = -61.400034, -7.4461986
    Effective power = -2278.6946
    Effective drag = -130.2569
    Effective lift = 1225.5309
smoothSolver:  Solving for Ux, Initial residual = 0.00010152581, Final residual = 9.0608939e-06, No Iterations 6
smoothSolver:  Solving for Uy, Initial residual = 3.0313369e-05, Final residual = 2.7297073e-06, No Iterations 10
smoothSolver:  Solving for Uz, Initial residual = 0.0001018826, Final residual = 9.1408103e-06, No Iterations 6
GAMG:  Solving for p, Initial residual = 7.1967263e-05, Final residual = 4.7944759e-06, No Iterations 3
time step continuity errors : sum local = 7.5043967e-06, global = 2.110927e-07, cumulative = -0.0079554812
smoothSolver:  Solving for omega, Initial residual = 4.7858357e-05, Final residual = 4.3303713e-06, No Iterations 12
smoothSolver:  Solving for k, Initial residual = 3.4087124e-05, Final residual = 3.3044091e-06, No Iterations 13
ExecutionTime = 111.53 s  ClockTime = 113 s

Time = 226

rotorDisk output:
    min/max(AOA)   = -61.398746, -7.4460944
    Effective power = -2278.6357
    Effective drag = -130.25321
    Effective lift = 1225.5095
smoothSolver:  Solving for Ux, Initial residual = 9.8214727e-05, Final residual = 8.7746383e-06, No Iterations 6
smoothSolver:  Solving for Uy, Initial residual = 2.9329593e-05, Final residual = 2.6444258e-06, No Iterations 10
smoothSolver:  Solving for Uz, Initial residual = 9.8562442e-05, Final residual = 8.8517494e-06, No Iterations 6
GAMG:  Solving for p, Initial residual = 6.957966e-05, Final residual = 4.6414689e-06, No Iterations 3
time step continuity errors : sum local = 7.2646493e-06, global = 2.0654369e-07, cumulative = -0.0079552747
smoothSolver:  Solving for omega, Initial residual = 4.639041e-05, Final residual = 4.1856054e-06, No Iterations 12
smoothSolver:  Solving for k, Initial residual = 3.2922197e-05, Final residual = 3.1901419e-06, No Iterations 13
ExecutionTime = 111.98 s  ClockTime = 113 s


SIMPLE solution converged in 226 iterations

End

